data_10-10-ch3
_audit_creation_date              2022-11-25
_audit_creation_method            'Materials Studio'
_symmetry_space_group_name_H-M    'P1'
_symmetry_Int_Tables_number       1
_symmetry_cell_setting            triclinic
loop_
_symmetry_equiv_pos_as_xyz
  x,y,z
_cell_length_a                    20.0000
_cell_length_b                    20.0000
_cell_length_c                    20.0000
_cell_angle_alpha                 90.0000
_cell_angle_beta                  90.0000
_cell_angle_gamma                 90.0000
loop_
_atom_site_label
_atom_site_type_symbol
_atom_site_fract_x
_atom_site_fract_y
_atom_site_fract_z
_atom_site_U_iso_or_equiv
_atom_site_adp_type
_atom_site_occupancy
Au1    Au    0.53083   0.49634   0.32943   0.00000  Uiso   1.00
Au2    Au    0.69525   0.54992   0.38919   0.00000  Uiso   1.00
Au3    Au    0.69260   0.55725   0.57111   0.00000  Uiso   1.00
S1     S     0.42784   0.44774   0.35786   0.00000  Uiso   1.00
S2     S     0.63004   0.54692   0.29121   0.00000  Uiso   1.00
S3     S     0.76844   0.55586   0.48106   0.00000  Uiso   1.00
Au4    Au    0.42719   0.45172   0.47805   0.00000  Uiso   1.00
S4     S     0.42645   0.45059   0.59816   0.00000  Uiso   1.00
S5     S     0.62561   0.55402   0.66813   0.00000  Uiso   1.00
Au5    Au    0.52761   0.50273   0.62757   0.00000  Uiso   1.00
Au6    Au    0.33884   0.32199   0.47039   0.00000  Uiso   1.00
Au7    Au    0.52204   0.33097   0.45481   0.00000  Uiso   1.00
Au8    Au    0.57290   0.50942   0.47878   0.00000  Uiso   1.00
S6     S     0.23925   0.37773   0.49970   0.00000  Uiso   1.00
S7     S     0.43227   0.25556   0.44254   0.00000  Uiso   1.00
S8     S     0.61731   0.39857   0.46615   0.00000  Uiso   1.00
Au9    Au    0.27375   0.49000   0.49177   0.00000  Uiso   1.00
S9     S     0.29785   0.60461   0.47966   0.00000  Uiso   1.00
S10    S     0.53152   0.62128   0.49379   0.00000  Uiso   1.00
Au10   Au    0.41512   0.60722   0.48899   0.00000  Uiso   1.00
loop_
_geom_bond_atom_site_label_1
_geom_bond_atom_site_label_2
_geom_bond_distance
_geom_bond_site_symmetry_2
_ccdc_geom_bond_type
Au1    S1      2.348   .     S
Au1    S2      2.355   .     S
Au2    S3      2.352   .     S
Au2    S2      2.355   .     S
Au3    S3      2.355   .     S
Au3    S5      2.359   .     S
S1     Au4     2.405   .     S
Au4    S4      2.402   .     S
S4     Au5     2.351   .     S
S5     Au5     2.356   .     S
Au6    S7      2.359   .     S
Au6    S6      2.357   .     S
Au7    S7      2.358   .     S
Au7    S8      2.347   .     S
Au8    S10     2.404   .     S
Au8    S8      2.402   .     S
S6     Au9     2.354   .     S
Au9    S9      2.355   .     S
S9     Au10    2.353   .     S
S10    Au10    2.347   .     S
