data_10e-32-22
_audit_creation_date              2023-04-12
_audit_creation_method            'Materials Studio'
_symmetry_space_group_name_H-M    'P1'
_symmetry_Int_Tables_number       1
_symmetry_cell_setting            triclinic
loop_
_symmetry_equiv_pos_as_xyz
  x,y,z
_cell_length_a                    20.0000
_cell_length_b                    20.0000
_cell_length_c                    20.0000
_cell_angle_alpha                 90.0000
_cell_angle_beta                  90.0000
_cell_angle_gamma                 90.0000
loop_
_atom_site_label
_atom_site_type_symbol
_atom_site_fract_x
_atom_site_fract_y
_atom_site_fract_z
_atom_site_U_iso_or_equiv
_atom_site_adp_type
_atom_site_occupancy
Au1    Au    0.33851   0.43474   0.41564   0.00000  Uiso   1.00
Au2    Au    0.32684   0.71722   0.36243   0.00000  Uiso   1.00
Au3    Au    0.54062   0.68704   0.37837   0.00000  Uiso   1.00
Au4    Au    0.32040   0.45383   0.63511   0.00000  Uiso   1.00
Au5    Au    0.29882   0.68281   0.61348   0.00000  Uiso   1.00
Au6    Au    0.57971   0.22800   0.37207   0.00000  Uiso   1.00
Au7    Au    0.42549   0.54582   0.39668   0.00000  Uiso   1.00
Au8    Au    0.63413   0.56658   0.39463   0.00000  Uiso   1.00
Au9    Au    0.69462   0.35051   0.62529   0.00000  Uiso   1.00
Au10   Au    0.46133   0.76507   0.66092   0.00000  Uiso   1.00
Au11   Au    0.53863   0.28663   0.70727   0.00000  Uiso   1.00
Au12   Au    0.68922   0.47364   0.26974   0.00000  Uiso   1.00
Au13   Au    0.67636   0.56381   0.61961   0.00000  Uiso   1.00
Au14   Au    0.64645   0.46858   0.49628   0.00000  Uiso   1.00
Au15   Au    0.45560   0.23777   0.23979   0.00000  Uiso   1.00
Au16   Au    0.30623   0.33369   0.28003   0.00000  Uiso   1.00
Au17   Au    0.32628   0.58178   0.23699   0.00000  Uiso   1.00
Au18   Au    0.32892   0.31586   0.51370   0.00000  Uiso   1.00
Au19   Au    0.33626   0.54292   0.50718   0.00000  Uiso   1.00
Au20   Au    0.67698   0.68480   0.48882   0.00000  Uiso   1.00
S21    S     0.66610   0.36356   0.23455   0.00000  Uiso   1.00
S22    S     0.36223   0.47362   0.21201   0.00000  Uiso   1.00
S23    S     0.62596   0.27207   0.47049   0.00000  Uiso   1.00
S24    S     0.36866   0.75225   0.46589   0.00000  Uiso   1.00
S25    S     0.61444   0.76406   0.42875   0.00000  Uiso   1.00
S26    S     0.42107   0.29305   0.70847   0.00000  Uiso   1.00
S27    S     0.65532   0.27777   0.70904   0.00000  Uiso   1.00
S28    S     0.37150   0.54300   0.69263   0.00000  Uiso   1.00
S29    S     0.61961   0.49556   0.69647   0.00000  Uiso   1.00
S30    S     0.34612   0.76646   0.68146   0.00000  Uiso   1.00
S31    S     0.24268   0.37934   0.36685   0.00000  Uiso   1.00
S32    S     0.28234   0.68883   0.25744   0.00000  Uiso   1.00
S33    S     0.46352   0.62772   0.31357   0.00000  Uiso   1.00
S34    S     0.71188   0.58447   0.30301   0.00000  Uiso   1.00
S35    S     0.25710   0.36345   0.59437   0.00000  Uiso   1.00
S36    S     0.74573   0.42233   0.54795   0.00000  Uiso   1.00
S37    S     0.24083   0.59901   0.55518   0.00000  Uiso   1.00
S38    S     0.57817   0.76662   0.64531   0.00000  Uiso   1.00
S39    S     0.54102   0.16787   0.27888   0.00000  Uiso   1.00
S40    S     0.75338   0.62059   0.55066   0.00000  Uiso   1.00
Au41   Au    0.54401   0.45537   0.39766   0.00000  Uiso   1.00
Au42   Au    0.46264   0.33355   0.38916   0.00000  Uiso   1.00
Au43   Au    0.44074   0.43458   0.29604   0.00000  Uiso   1.00
Au44   Au    0.56232   0.36097   0.29691   0.00000  Uiso   1.00
S45    S     0.36374   0.28883   0.18805   0.00000  Uiso   1.00
Au46   Au    0.54225   0.45509   0.61174   0.00000  Uiso   1.00
Au47   Au    0.43864   0.35898   0.60847   0.00000  Uiso   1.00
Au48   Au    0.44209   0.45023   0.50689   0.00000  Uiso   1.00
Au49   Au    0.54561   0.35223   0.51413   0.00000  Uiso   1.00
S50    S     0.38674   0.25009   0.43489   0.00000  Uiso   1.00
Au51   Au    0.55875   0.66328   0.58553   0.00000  Uiso   1.00
Au52   Au    0.45117   0.57161   0.60558   0.00000  Uiso   1.00
Au53   Au    0.44344   0.66276   0.49741   0.00000  Uiso   1.00
Au54   Au    0.54165   0.56213   0.49593   0.00000  Uiso   1.00
loop_
_geom_bond_atom_site_label_1
_geom_bond_atom_site_label_2
_geom_bond_distance
_geom_bond_site_symmetry_2
_ccdc_geom_bond_type
Au1    S31     2.419   .     S
Au1    Au48    2.778   .     S
Au2    S32     2.350   .     S
Au2    S24     2.339   .     S
Au3    S25     2.360   .     S
Au3    S33     2.338   .     S
Au4    S28     2.355   .     S
Au4    S35     2.352   .     S
Au5    S30     2.354   .     S
Au5    S37     2.348   .     S
Au6    S39     2.349   .     S
Au6    S23     2.347   .     S
Au7    S33     2.455   .     S
Au8    S34     2.430   .     S
Au8    Au54    2.745   .     S
Au9    S27     2.354   .     S
Au9    S36     2.345   .     S
Au10   S30     2.341   .     S
Au10   S38     2.358   .     S
Au11   S26     2.355   .     S
Au11   S27     2.341   .     S
Au12   S21     2.357   .     S
Au12   S34     2.358   .     S
Au13   S29     2.348   .     S
Au13   S40     2.359   .     S
Au14   S36     2.422   .     S
Au15   S39     2.342   .     S
Au15   S45     2.343   .     S
Au16   S45     2.348   .     S
Au16   S31     2.338   .     S
Au17   S32     2.350   .     S
Au17   S22     2.334   .     S
Au18   S50     2.356   .     S
Au18   S35     2.361   .     S
Au19   S37     2.413   .     S
Au20   S40     2.348   .     S
Au20   S25     2.350   .     S
S21    Au44    2.422   .     S
S22    Au43    2.429   .     S
S23    Au49    2.432   .     S
S24    Au53    2.416   .     S
S26    Au47    2.421   .     S
S28    Au52    2.428   .     S
S29    Au46    2.433   .     S
S38    Au51    2.419   .     S
Au42   Au44    2.771   .     S
Au42   S50     2.435   .     S
Au47   Au48    2.732   .     S
Au51   Au54    2.724   .     S
