data_11-9-Liu
_audit_creation_date              2023-04-12
_audit_creation_method            'Materials Studio'
_symmetry_space_group_name_H-M    'P1'
_symmetry_Int_Tables_number       1
_symmetry_cell_setting            triclinic
loop_
_symmetry_equiv_pos_as_xyz
  x,y,z
_cell_length_a                    20.0000
_cell_length_b                    20.0000
_cell_length_c                    20.0000
_cell_angle_alpha                 90.0000
_cell_angle_beta                  90.0000
_cell_angle_gamma                 90.0000
loop_
_atom_site_label
_atom_site_type_symbol
_atom_site_fract_x
_atom_site_fract_y
_atom_site_fract_z
_atom_site_U_iso_or_equiv
_atom_site_adp_type
_atom_site_occupancy
Au1    Au    0.36830   0.61797   0.58019   0.00000  Uiso   1.00
Au2    Au    0.44773   0.42694   0.31160   0.00000  Uiso   1.00
Au3    Au    0.53964   0.57062   0.53702   0.00000  Uiso   1.00
Au4    Au    0.35008   0.40300   0.45518   0.00000  Uiso   1.00
Au5    Au    0.60309   0.42687   0.56239   0.00000  Uiso   1.00
Au6    Au    0.60658   0.65837   0.43139   0.00000  Uiso   1.00
Au7    Au    0.45212   0.46605   0.54777   0.00000  Uiso   1.00
Au8    Au    0.49687   0.52504   0.67564   0.00000  Uiso   1.00
Au9    Au    0.42625   0.56567   0.44737   0.00000  Uiso   1.00
Au10   Au    0.57286   0.54134   0.29853   0.00000  Uiso   1.00
Au11   Au    0.52858   0.48105   0.42895   0.00000  Uiso   1.00
S1     S     0.36784   0.38106   0.56984   0.00000  Uiso   1.00
S2     S     0.40087   0.59246   0.69029   0.00000  Uiso   1.00
S3     S     0.55864   0.42746   0.27080   0.00000  Uiso   1.00
S4     S     0.62002   0.39966   0.44808   0.00000  Uiso   1.00
S5     S     0.62278   0.65842   0.54819   0.00000  Uiso   1.00
S6     S     0.33538   0.64372   0.46906   0.00000  Uiso   1.00
S7     S     0.33347   0.42337   0.34112   0.00000  Uiso   1.00
S8     S     0.59008   0.45234   0.67693   0.00000  Uiso   1.00
S9     S     0.58671   0.65701   0.31621   0.00000  Uiso   1.00
loop_
_geom_bond_atom_site_label_1
_geom_bond_atom_site_label_2
_geom_bond_distance
_geom_bond_site_symmetry_2
_ccdc_geom_bond_type
Au1    S6      2.375   .     S
Au1    S2      2.352   .     S
Au2    S7      2.361   .     S
Au2    S3      2.364   .     S
Au3    S5      2.429   .     S
Au3    Au7     2.736   .     S
Au4    S7      2.341   .     S
Au4    S1      2.362   .     S
Au5    S4      2.374   .     S
Au5    S8      2.361   .     S
Au6    S9      2.338   .     S
Au6    S5      2.358   .     S
Au7    S1      2.434   .     S
Au8    S8      2.364   .     S
Au8    S2      2.364   .     S
Au9    S6      2.435   .     S
Au9    Au11    2.681   .     S
Au10   S9      2.357   .     S
Au10   S3      2.361   .     S
Au11   S4      2.478   .     S
