data_15-12
_audit_creation_date              2023-04-12
_audit_creation_method            'Materials Studio'
_symmetry_space_group_name_H-M    'P1'
_symmetry_Int_Tables_number       1
_symmetry_cell_setting            triclinic
loop_
_symmetry_equiv_pos_as_xyz
  x,y,z
_cell_length_a                    20.0000
_cell_length_b                    20.0000
_cell_length_c                    20.0000
_cell_angle_alpha                 90.0000
_cell_angle_beta                  90.0000
_cell_angle_gamma                 90.0000
loop_
_atom_site_label
_atom_site_type_symbol
_atom_site_fract_x
_atom_site_fract_y
_atom_site_fract_z
_atom_site_U_iso_or_equiv
_atom_site_adp_type
_atom_site_occupancy
Au1    Au    1.53767   0.57787   0.51553   0.00000  Uiso   1.00
Au2    Au    1.44776   0.47296   0.38563   0.00000  Uiso   1.00
Au3    Au    1.41942   0.51228   0.53538   0.00000  Uiso   1.00
Au4    Au    1.56091   0.43950   0.45395   0.00000  Uiso   1.00
Au5    Au    1.56547   0.54269   0.36671   0.00000  Uiso   1.00
Au6    Au    1.42226   0.61543   0.44864   0.00000  Uiso   1.00
Au7    Au    1.65383   0.43735   0.30599   0.00000  Uiso   1.00
Au8    Au    1.50977   0.33908   0.34253   0.00000  Uiso   1.00
Au9    Au    1.29012   0.53340   0.43504   0.00000  Uiso   1.00
Au10   Au    1.56022   0.45446   0.62563   0.00000  Uiso   1.00
Au11   Au    1.49512   0.67567   0.32742   0.00000  Uiso   1.00
Au12   Au    1.42011   0.34381   0.50295   0.00000  Uiso   1.00
Au13   Au    1.69802   0.54179   0.44346   0.00000  Uiso   1.00
Au14   Au    1.33131   0.64976   0.56399   0.00000  Uiso   1.00
Au15   Au    1.47586   0.61347   0.65123   0.00000  Uiso   1.00
S16    S     1.65475   0.60415   0.53318   0.00000  Uiso   1.00
S17    S     1.59758   0.37320   0.54935   0.00000  Uiso   1.00
S18    S     1.60187   0.63750   0.29665   0.00000  Uiso   1.00
S19    S     1.33390   0.47165   0.34538   0.00000  Uiso   1.00
S20    S     1.75037   0.48460   0.35403   0.00000  Uiso   1.00
S21    S     1.38023   0.41144   0.59036   0.00000  Uiso   1.00
S22    S     1.23589   0.59745   0.51859   0.00000  Uiso   1.00
S23    S     1.45452   0.26856   0.41926   0.00000  Uiso   1.00
S24    S     1.42250   0.70997   0.60846   0.00000  Uiso   1.00
S25    S     1.38755   0.70179   0.36726   0.00000  Uiso   1.00
S26    S     1.52983   0.52837   0.71202   0.00000  Uiso   1.00
S27    S     1.56188   0.39040   0.24944   0.00000  Uiso   1.00
loop_
_geom_bond_atom_site_label_1
_geom_bond_atom_site_label_2
_geom_bond_distance
_geom_bond_site_symmetry_2
_ccdc_geom_bond_type
Au1    Au6     2.772   .     S
Au1    S16     2.426   .     S
Au1    Au3     2.733   .     S
Au2    S19     2.415   .     S
Au2    Au5     2.762   .     S
Au2    Au4     2.727   .     S
Au3    Au6     2.696   .     S
Au3    S21     2.427   .     S
Au4    S17     2.437   .     S
Au4    Au5     2.704   .     S
Au5    S18     2.467   .     S
Au6    S25     2.473   .     S
Au7    S20     2.355   .     S
Au7    S27     2.354   .     S
Au8    S23     2.359   .     S
Au8    S27     2.368   .     S
Au9    S19     2.347   .     S
Au9    S22     2.368   .     S
Au10   S26     2.354   .     S
Au10   S17     2.351   .     S
Au11   S25     2.353   .     S
Au11   S18     2.349   .     S
Au12   S23     2.354   .     S
Au12   S21     2.350   .     S
Au13   S16     2.350   .     S
Au13   S20     2.367   .     S
Au14   S22     2.358   .     S
Au14   S24     2.360   .     S
Au15   S24     2.366   .     S
Au15   S26     2.354   .     S
