data_16-12exp
_audit_creation_date              2023-04-12
_audit_creation_method            'Materials Studio'
_symmetry_space_group_name_H-M    'P1'
_symmetry_Int_Tables_number       1
_symmetry_cell_setting            triclinic
loop_
_symmetry_equiv_pos_as_xyz
  x,y,z
_cell_length_a                    20.0000
_cell_length_b                    20.0000
_cell_length_c                    20.0000
_cell_angle_alpha                 90.0000
_cell_angle_beta                  90.0000
_cell_angle_gamma                 90.0000
loop_
_atom_site_label
_atom_site_type_symbol
_atom_site_fract_x
_atom_site_fract_y
_atom_site_fract_z
_atom_site_U_iso_or_equiv
_atom_site_adp_type
_atom_site_occupancy
Au1    Au    0.53136  -0.29290   0.54802   0.00000  Uiso   1.00
Au2    Au    0.33528  -0.37761   0.40488   0.00000  Uiso   1.00
Au3    Au    0.46795  -0.27172   0.38571   0.00000  Uiso   1.00
Au4    Au    0.60193  -0.62241   0.38469   0.00000  Uiso   1.00
Au5    Au    0.63705  -0.48464   0.26262   0.00000  Uiso   1.00
Au6    Au    0.35369  -0.62612   0.43076   0.00000  Uiso   1.00
Au7    Au    0.63631  -0.53316   0.60166   0.00000  Uiso   1.00
Au8    Au    0.34081  -0.60288   0.60938   0.00000  Uiso   1.00
Au9    Au    0.48189  -0.55937   0.69299   0.00000  Uiso   1.00
S1     S     0.54772  -0.22093   0.45581   0.00000  Uiso   1.00
S2     S     0.38043  -0.31239   0.31741   0.00000  Uiso   1.00
S3     S     0.67341  -0.59028   0.29628   0.00000  Uiso   1.00
S4     S     0.59965  -0.37662   0.23234   0.00000  Uiso   1.00
S5     S     0.30806  -0.67867   0.52595   0.00000  Uiso   1.00
S6     S     0.59483  -0.59197   0.69514   0.00000  Uiso   1.00
S7     S     0.36726  -0.53153   0.69972   0.00000  Uiso   1.00
S8     S     0.52571  -0.35505   0.64763   0.00000  Uiso   1.00
S9     S     0.28088  -0.44399   0.48491   0.00000  Uiso   1.00
S10    S     0.54071  -0.67587   0.46997   0.00000  Uiso   1.00
S11    S     0.39029  -0.58140   0.32817   0.00000  Uiso   1.00
S12    S     0.68982  -0.47690   0.51317   0.00000  Uiso   1.00
Au10   Au    0.38574  -0.49697   0.51412   0.00000  Uiso   1.00
Au11   Au    0.49915  -0.45721   0.58758   0.00000  Uiso   1.00
Au12   Au    0.47501  -0.51332   0.37801   0.00000  Uiso   1.00
Au13   Au    0.59114  -0.47878   0.44468   0.00000  Uiso   1.00
Au14   Au    0.49759  -0.57434   0.52057   0.00000  Uiso   1.00
Au15   Au    0.47596  -0.39821   0.45975   0.00000  Uiso   1.00
Au16   Au    0.54430  -0.39484   0.33953   0.00000  Uiso   1.00
loop_
_geom_bond_atom_site_label_1
_geom_bond_atom_site_label_2
_geom_bond_distance
_geom_bond_site_symmetry_2
_ccdc_geom_bond_type
Au1    S8      2.351   .     S
Au1    S1      2.362   .     S
Au2    S9      2.347   .     S
Au2    S2      2.361   .     S
Au3    S2      2.365   .     S
Au3    S1      2.354   .     S
Au4    S3      2.363   .     S
Au4    S10     2.356   .     S
Au5    S4      2.365   .     S
Au5    S3      2.334   .     S
Au6    S5      2.358   .     S
Au6    S11     2.355   .     S
Au7    S12     2.355   .     S
Au7    S6      2.359   .     S
Au8    S5      2.347   .     S
Au8    S7      2.362   .     S
Au9    S6      2.351   .     S
Au9    S7      2.363   .     S
S4     Au16    2.440   .     S
S8     Au11    2.429   .     S
S9     Au10    2.421   .     S
S10    Au14    2.427   .     S
S11    Au12    2.391   .     S
S12    Au13    2.403   .     S
Au10   Au14    2.723   .     S
Au11   Au14    2.699   .     S
Au12   Au13    2.766   .     S
Au15   Au16    2.767   .     S
