data_18-14-ch3
_audit_creation_date              2022-11-25
_audit_creation_method            'Materials Studio'
_symmetry_space_group_name_H-M    'P1'
_symmetry_Int_Tables_number       1
_symmetry_cell_setting            triclinic
loop_
_symmetry_equiv_pos_as_xyz
  x,y,z
_cell_length_a                    20.0000
_cell_length_b                    20.0000
_cell_length_c                    20.0000
_cell_angle_alpha                 90.0000
_cell_angle_beta                  90.0000
_cell_angle_gamma                 90.0000
loop_
_atom_site_label
_atom_site_type_symbol
_atom_site_fract_x
_atom_site_fract_y
_atom_site_fract_z
_atom_site_U_iso_or_equiv
_atom_site_adp_type
_atom_site_occupancy
Au1    Au    0.53848  -0.44159   0.58802   0.00000  Uiso   1.00
Au2    Au    0.44073  -0.55053   0.45128   0.00000  Uiso   1.00
Au3    Au    0.42611  -0.51933   0.59690   0.00000  Uiso   1.00
Au4    Au    0.56114  -0.56959   0.51701   0.00000  Uiso   1.00
Au5    Au    0.54320  -0.45049   0.44080   0.00000  Uiso   1.00
Au6    Au    0.51130  -0.53077   0.31987   0.00000  Uiso   1.00
Au7    Au    0.42264  -0.41203   0.51196   0.00000  Uiso   1.00
Au8    Au    0.63023  -0.55276   0.38603   0.00000  Uiso   1.00
Au9    Au    0.52817  -0.64716   0.39706   0.00000  Uiso   1.00
Au10   Au    0.62854  -0.43506   0.28819   0.00000  Uiso   1.00
Au11   Au    0.28796  -0.48725   0.50720   0.00000  Uiso   1.00
Au12   Au    0.54974  -0.57165   0.68903   0.00000  Uiso   1.00
Au13   Au    0.40582  -0.40278   0.33901   0.00000  Uiso   1.00
Au14   Au    0.42619  -0.67868   0.54623   0.00000  Uiso   1.00
Au15   Au    0.69626  -0.47758   0.51667   0.00000  Uiso   1.00
Au16   Au    0.34193  -0.36822   0.62823   0.00000  Uiso   1.00
Au17   Au    0.47159  -0.41377   0.71935   0.00000  Uiso   1.00
Au18   Au    0.62167  -0.60789   0.25120   0.00000  Uiso   1.00
S19    S     0.65336  -0.40375   0.59790   0.00000  Uiso   1.00
S20    S     0.59935  -0.64153   0.60843   0.00000  Uiso   1.00
S21    S     0.58723  -0.36047   0.36982   0.00000  Uiso   1.00
S22    S     0.32351  -0.55162   0.41572   0.00000  Uiso   1.00
S23    S     0.74388  -0.53637   0.42549   0.00000  Uiso   1.00
S24    S     0.38563  -0.62418   0.64272   0.00000  Uiso   1.00
S25    S     0.24263  -0.42112   0.59386   0.00000  Uiso   1.00
S26    S     0.46419  -0.73858   0.45263   0.00000  Uiso   1.00
S27    S     0.43705  -0.31183   0.67023   0.00000  Uiso   1.00
S28    S     0.37340  -0.33602   0.43015   0.00000  Uiso   1.00
S29    S     0.43782  -0.46908   0.24688   0.00000  Uiso   1.00
S30    S     0.49762  -0.51276   0.77689   0.00000  Uiso   1.00
S31    S     0.66451  -0.50874   0.20250   0.00000  Uiso   1.00
S32    S     0.58546  -0.70835   0.30019   0.00000  Uiso   1.00
loop_
_geom_bond_atom_site_label_1
_geom_bond_atom_site_label_2
_geom_bond_distance
_geom_bond_site_symmetry_2
_ccdc_geom_bond_type
Au1    S19     2.427   .     S
Au1    Au3     2.738   .     S
Au2    S22     2.450   .     S
Au2    Au4     2.770   .     S
Au3    Au7     2.738   .     S
Au3    S24     2.428   .     S
Au4    S20     2.449   .     S
Au5    S21     2.456   .     S
Au6    S29     2.411   .     S
Au6    Au8     2.757   .     S
Au7    S28     2.441   .     S
Au8    S23     2.428   .     S
Au9    S26     2.493   .     S
Au9    S32     2.562   .     S
Au10   S31     2.372   .     S
Au10   S21     2.361   .     S
Au11   S25     2.361   .     S
Au11   S22     2.347   .     S
Au12   S20     2.353   .     S
Au12   S30     2.358   .     S
Au13   S29     2.359   .     S
Au13   S28     2.351   .     S
Au14   S26     2.349   .     S
Au14   S24     2.360   .     S
Au15   S19     2.357   .     S
Au15   S23     2.370   .     S
Au16   S25     2.353   .     S
Au16   S27     2.366   .     S
Au17   S27     2.366   .     S
Au17   S30     2.349   .     S
Au18   S32     2.350   .     S
Au18   S31     2.370   .     S
