data_21-15-A-ch3
_audit_creation_date              2022-11-25
_audit_creation_method            'Materials Studio'
_symmetry_space_group_name_H-M    'P1'
_symmetry_Int_Tables_number       1
_symmetry_cell_setting            triclinic
loop_
_symmetry_equiv_pos_as_xyz
  x,y,z
_cell_length_a                    20.0000
_cell_length_b                    20.0000
_cell_length_c                    20.0000
_cell_angle_alpha                 90.0000
_cell_angle_beta                  90.0000
_cell_angle_gamma                 90.0000
loop_
_atom_site_label
_atom_site_type_symbol
_atom_site_fract_x
_atom_site_fract_y
_atom_site_fract_z
_atom_site_U_iso_or_equiv
_atom_site_adp_type
_atom_site_occupancy
Au1    Au    0.32956  -0.54780   0.38369   0.00000  Uiso   1.00
Au2    Au    0.30289  -0.41746   0.51600   0.00000  Uiso   1.00
Au3    Au    0.41463  -0.70284   0.39359   0.00000  Uiso   1.00
Au4    Au    0.46317  -0.57617   0.45445   0.00000  Uiso   1.00
Au5    Au    0.43877  -0.46346   0.57179   0.00000  Uiso   1.00
Au6    Au    0.35463  -0.41740   0.68534   0.00000  Uiso   1.00
Au7    Au    0.56879  -0.70378   0.32890   0.00000  Uiso   1.00
Au8    Au    0.49588  -0.54284   0.32509   0.00000  Uiso   1.00
Au9    Au    0.46231  -0.40717   0.40498   0.00000  Uiso   1.00
Au10   Au    0.44856  -0.32866   0.54544   0.00000  Uiso   1.00
Au11   Au    0.48765  -0.32390   0.72071   0.00000  Uiso   1.00
Au12   Au    0.64738  -0.55747   0.26127   0.00000  Uiso   1.00
Au13   Au    0.59639  -0.57911   0.40759   0.00000  Uiso   1.00
Au14   Au    0.55612  -0.46995   0.48728   0.00000  Uiso   1.00
Au15   Au    0.55451  -0.38912   0.60320   0.00000  Uiso   1.00
Au16   Au    0.57596  -0.23415   0.59207   0.00000  Uiso   1.00
Au17   Au    0.67537  -0.51137   0.55353   0.00000  Uiso   1.00
Au18   Au    0.58966  -0.42660   0.35276   0.00000  Uiso   1.00
Au19   Au    0.56815  -0.33009   0.45141   0.00000  Uiso   1.00
Au20   Au    0.47435  -0.38227   0.25606   0.00000  Uiso   1.00
Au21   Au    0.44593  -0.25865   0.38279   0.00000  Uiso   1.00
S1     S     0.30908  -0.66127   0.36197   0.00000  Uiso   1.00
S2     S     0.34225  -0.43312   0.40636   0.00000  Uiso   1.00
S3     S     0.25571  -0.40449   0.62266   0.00000  Uiso   1.00
S4     S     0.51729  -0.75292   0.42335   0.00000  Uiso   1.00
S5     S     0.40394  -0.57951   0.56069   0.00000  Uiso   1.00
S6     S     0.44819  -0.42950   0.75628   0.00000  Uiso   1.00
S7     S     0.69884  -0.59364   0.47168   0.00000  Uiso   1.00
S8     S     0.66364  -0.42989   0.63864   0.00000  Uiso   1.00
S9     S     0.61753  -0.66668   0.22862   0.00000  Uiso   1.00
S10    S     0.68494  -0.44824   0.28269   0.00000  Uiso   1.00
S11    S     0.63923  -0.24298   0.49357   0.00000  Uiso   1.00
S12    S     0.52066  -0.21437   0.69423   0.00000  Uiso   1.00
S13    S     0.44083  -0.49199   0.22842   0.00000  Uiso   1.00
S14    S     0.50064  -0.26866   0.27801   0.00000  Uiso   1.00
S15    S     0.38588  -0.24387   0.48328   0.00000  Uiso   1.00
loop_
_geom_bond_atom_site_label_1
_geom_bond_atom_site_label_2
_geom_bond_distance
_geom_bond_site_symmetry_2
_ccdc_geom_bond_type
Au1    S2      2.352   .     S
Au1    S1      2.347   .     S
Au2    S2      2.351   .     S
Au2    S3      2.347   .     S
Au3    S1      2.355   .     S
Au3    S4      2.361   .     S
Au4    Au8     2.751   .     S
Au4    S5      2.434   .     S
Au5    S5      2.433   .     S
Au5    Au10    2.754   .     S
Au6    S3      2.356   .     S
Au6    S6      2.361   .     S
Au7    S4      2.365   .     S
Au7    S9      2.350   .     S
Au8    S13     2.446   .     S
Au8    Au13    2.700   .     S
Au9    S2      2.457   .     S
Au9    Au18    2.780   .     S
Au9    Au19    2.778   .     S
Au10   Au15    2.699   .     S
Au10   S15     2.448   .     S
Au11   S12     2.348   .     S
Au11   S6      2.364   .     S
Au12   S10     2.350   .     S
Au12   S9      2.357   .     S
Au13   S7      2.434   .     S
Au15   S8      2.435   .     S
Au16   S11     2.348   .     S
Au16   S12     2.357   .     S
Au17   S7      2.368   .     S
Au17   S8      2.368   .     S
Au18   S10     2.405   .     S
Au19   S11     2.402   .     S
Au20   S14     2.373   .     S
Au20   S13     2.360   .     S
Au21   S14     2.373   .     S
Au21   S15     2.360   .     S
