data_24-16-ch3
_audit_creation_date              2022-11-25
_audit_creation_method            'Materials Studio'
_symmetry_space_group_name_H-M    'P1'
_symmetry_Int_Tables_number       1
_symmetry_cell_setting            triclinic
loop_
_symmetry_equiv_pos_as_xyz
  x,y,z
_cell_length_a                    20.0000
_cell_length_b                    20.0000
_cell_length_c                    20.0000
_cell_angle_alpha                 90.0000
_cell_angle_beta                  90.0000
_cell_angle_gamma                 90.0000
loop_
_atom_site_label
_atom_site_type_symbol
_atom_site_fract_x
_atom_site_fract_y
_atom_site_fract_z
_atom_site_U_iso_or_equiv
_atom_site_adp_type
_atom_site_occupancy
Au1    Au    0.60733  -0.27208   0.69937   0.00000  Uiso   1.00
Au2    Au    0.50528  -0.40730   0.75558   0.00000  Uiso   1.00
Au3    Au    0.50924  -0.54015   0.64229   0.00000  Uiso   1.00
Au4    Au    0.46782  -0.40177   0.61150   0.00000  Uiso   1.00
Au5    Au    0.55459  -0.30258   0.56443   0.00000  Uiso   1.00
Au6    Au    0.60341  -0.42083   0.61201   0.00000  Uiso   1.00
Au7    Au    0.70890  -0.29832   0.54883   0.00000  Uiso   1.00
Au8    Au    0.62278  -0.41639   0.46180   0.00000  Uiso   1.00
Au9    Au    0.68982  -0.54201   0.51464   0.00000  Uiso   1.00
Au10   Au    0.57300  -0.63251   0.55647   0.00000  Uiso   1.00
Au11   Au    0.52870  -0.51161   0.50532   0.00000  Uiso   1.00
Au12   Au    0.48576  -0.38383   0.46928   0.00000  Uiso   1.00
Au13   Au    0.47953  -0.24581   0.41966   0.00000  Uiso   1.00
Au14   Au    0.35466  -0.46115   0.50473   0.00000  Uiso   1.00
Au15   Au    0.43440  -0.60616   0.54147   0.00000  Uiso   1.00
Au16   Au    0.56097  -0.78619   0.52500   0.00000  Uiso   1.00
Au17   Au    0.47003  -0.71259   0.42663   0.00000  Uiso   1.00
Au18   Au    0.31741  -0.68586   0.44047   0.00000  Uiso   1.00
Au19   Au    0.43631  -0.58744   0.39104   0.00000  Uiso   1.00
Au20   Au    0.56984  -0.61512   0.40323   0.00000  Uiso   1.00
Au21   Au    0.39454  -0.38852   0.35361   0.00000  Uiso   1.00
Au22   Au    0.53162  -0.47037   0.36714   0.00000  Uiso   1.00
Au23   Au    0.53509  -0.60215   0.25270   0.00000  Uiso   1.00
Au24   Au    0.40797  -0.71254   0.28924   0.00000  Uiso   1.00
S1     S     0.50581  -0.28946   0.75680   0.00000  Uiso   1.00
S2     S     0.71199  -0.24459   0.65368   0.00000  Uiso   1.00
S3     S     0.52977  -0.19500   0.51298   0.00000  Uiso   1.00
S4     S     0.50226  -0.52461   0.76181   0.00000  Uiso   1.00
S5     S     0.34792  -0.42435   0.61578   0.00000  Uiso   1.00
S6     S     0.70753  -0.48275   0.61602   0.00000  Uiso   1.00
S7     S     0.72180  -0.35094   0.44427   0.00000  Uiso   1.00
S8     S     0.43204  -0.28326   0.31803   0.00000  Uiso   1.00
S9     S     0.35498  -0.49338   0.39090   0.00000  Uiso   1.00
S10    S     0.32700  -0.65940   0.55479   0.00000  Uiso   1.00
S11    S     0.64053  -0.72816   0.58900   0.00000  Uiso   1.00
S12    S     0.68912  -0.60646   0.41511   0.00000  Uiso   1.00
S13    S     0.55542  -0.48650   0.24867   0.00000  Uiso   1.00
S14    S     0.51752  -0.71855   0.24599   0.00000  Uiso   1.00
S15    S     0.29622  -0.70875   0.32633   0.00000  Uiso   1.00
S16    S     0.47642  -0.83068   0.45619   0.00000  Uiso   1.00
loop_
_geom_bond_atom_site_label_1
_geom_bond_atom_site_label_2
_geom_bond_distance
_geom_bond_site_symmetry_2
_ccdc_geom_bond_type
Au1    S1      2.358   .     S
Au1    S2      2.349   .     S
Au2    S1      2.357   .     S
Au2    S4      2.350   .     S
Au3    S4      2.415   .     S
Au4    S5      2.442   .     S
Au4    Au6     2.738   .     S
Au5    S3      2.436   .     S
Au5    Au6     2.730   .     S
Au6    S6      2.424   .     S
Au7    S7      2.355   .     S
Au7    S2      2.357   .     S
Au8    S7      2.400   .     S
Au9    S6      2.375   .     S
Au9    S12     2.372   .     S
Au10   Au11    2.771   .     S
Au10   S11     2.430   .     S
Au11   Au15    2.767   .     S
Au13   S8      2.365   .     S
Au13   S3      2.351   .     S
Au14   S5      2.344   .     S
Au14   S9      2.366   .     S
Au15   S10     2.412   .     S
Au16   S11     2.349   .     S
Au16   S16     2.355   .     S
Au17   Au19    2.688   .     S
Au17   S16     2.438   .     S
Au18   S15     2.366   .     S
Au18   S10     2.355   .     S
Au19   Au20    2.738   .     S
Au19   S9      2.487   .     S
Au20   S12     2.404   .     S
Au21   S9      2.362   .     S
Au21   S8      2.345   .     S
Au22   S13     2.438   .     S
Au23   S13     2.350   .     S
Au23   S14     2.358   .     S
Au24   S15     2.356   .     S
Au24   S14     2.359   .     S
