data_26-19
_audit_creation_date              2023-04-12
_audit_creation_method            'Materials Studio'
_symmetry_space_group_name_H-M    'P1'
_symmetry_Int_Tables_number       1
_symmetry_cell_setting            triclinic
loop_
_symmetry_equiv_pos_as_xyz
  x,y,z
_cell_length_a                    20.0000
_cell_length_b                    20.0000
_cell_length_c                    20.0000
_cell_angle_alpha                 90.0000
_cell_angle_beta                  90.0000
_cell_angle_gamma                 90.0000
loop_
_atom_site_label
_atom_site_type_symbol
_atom_site_fract_x
_atom_site_fract_y
_atom_site_fract_z
_atom_site_U_iso_or_equiv
_atom_site_adp_type
_atom_site_occupancy
Au1    Au    0.60671   0.46112   0.27422   0.00000  Uiso   1.00
Au2    Au    0.48623   0.32283   0.48488   0.00000  Uiso   1.00
Au3    Au    0.50039   0.52116   0.69241   0.00000  Uiso   1.00
Au4    Au    0.64645   0.25230   0.56551   0.00000  Uiso   1.00
Au5    Au    0.47318   0.57633   0.50291   0.00000  Uiso   1.00
Au6    Au    0.41323   0.58995   0.33253   0.00000  Uiso   1.00
Au7    Au    0.43889   0.46064   0.24065   0.00000  Uiso   1.00
Au8    Au    0.77068   0.29848   0.62761   0.00000  Uiso   1.00
Au9    Au    0.72005   0.46678   0.54783   0.00000  Uiso   1.00
Au10   Au    0.29461   0.45175   0.31621   0.00000  Uiso   1.00
Au11   Au    0.61474   0.61431   0.75308   0.00000  Uiso   1.00
Au12   Au    0.34225   0.31435   0.39490   0.00000  Uiso   1.00
Au13   Au    0.51547   0.30093   0.61980   0.00000  Uiso   1.00
Au14   Au    0.62623   0.53735   0.62391   0.00000  Uiso   1.00
Au15   Au    0.48891   0.32113   0.31604   0.00000  Uiso   1.00
Au16   Au    0.73425   0.33679   0.46836   0.00000  Uiso   1.00
Au17   Au    0.73489   0.54861   0.40266   0.00000  Uiso   1.00
Au18   Au    0.47425   0.42618   0.57536   0.00000  Uiso   1.00
Au19   Au    0.63521   0.21831   0.70363   0.00000  Uiso   1.00
Au20   Au    0.64251   0.35639   0.67086   0.00000  Uiso   1.00
Au21   Au    0.43577   0.43038   0.39121   0.00000  Uiso   1.00
Au22   Au    0.71554   0.67460   0.63018   0.00000  Uiso   1.00
S23    S     0.24292   0.37127   0.38100   0.00000  Uiso   1.00
S24    S     0.65921   0.28694   0.39317   0.00000  Uiso   1.00
S25    S     0.48979   0.64733   0.40360   0.00000  Uiso   1.00
S26    S     0.67847   0.55189   0.29934   0.00000  Uiso   1.00
S27    S     0.75095   0.21440   0.70540   0.00000  Uiso   1.00
S28    S     0.77075   0.65999   0.52926   0.00000  Uiso   1.00
S29    S     0.58512   0.61015   0.54024   0.00000  Uiso   1.00
S30    S     0.58044   0.50254   0.77863   0.00000  Uiso   1.00
S31    S     0.52948   0.38602   0.22595   0.00000  Uiso   1.00
S32    S     0.44213   0.25113   0.39953   0.00000  Uiso   1.00
S33    S     0.42215   0.52902   0.60518   0.00000  Uiso   1.00
S34    S     0.51934   0.22131   0.70517   0.00000  Uiso   1.00
S35    S     0.66253   0.46507   0.71447   0.00000  Uiso   1.00
S36    S     0.61893   0.21506   0.45620   0.00000  Uiso   1.00
S37    S     0.80689   0.37955   0.54983   0.00000  Uiso   1.00
S38    S     0.38278   0.52550   0.44072   0.00000  Uiso   1.00
S39    S     0.79344   0.56137   0.50506   0.00000  Uiso   1.00
S40    S     0.34711   0.53523   0.25037   0.00000  Uiso   1.00
S41    S     0.66188   0.71471   0.72427   0.00000  Uiso   1.00
Au42   Au    0.60833   0.51368   0.46565   0.00000  Uiso   1.00
Au43   Au    0.60340   0.39037   0.53751   0.00000  Uiso   1.00
Au44   Au    0.58370   0.59897   0.35277   0.00000  Uiso   1.00
Au45   Au    0.58293   0.39558   0.39690   0.00000  Uiso   1.00
loop_
_geom_bond_atom_site_label_1
_geom_bond_atom_site_label_2
_geom_bond_distance
_geom_bond_site_symmetry_2
_ccdc_geom_bond_type
Au1    S31     2.361   .     S
Au1    S26     2.368   .     S
Au2    Au18    2.758   .     S
Au2    S32     2.397   .     S
Au3    S33     2.349   .     S
Au3    S30     2.382   .     S
Au4    S36     2.374   .     S
Au5    S29     2.455   .     S
Au5    S25     2.464   .     S
Au5    S38     2.419   .     S
Au5    S33     2.474   .     S
Au6    S25     2.384   .     S
Au6    S40     2.376   .     S
Au7    S31     2.366   .     S
Au7    S40     2.373   .     S
Au8    S27     2.325   .     S
Au8    S37     2.361   .     S
Au9    S37     2.462   .     S
Au9    S39     2.543   .     S
Au10   S23     2.311   .     S
Au10   S40     2.371   .     S
Au11   S30     2.394   .     S
Au11   S41     2.292   .     S
Au12   S32     2.366   .     S
Au12   S23     2.307   .     S
Au13   S34     2.336   .     S
Au14   S35     2.428   .     S
Au14   S29     2.366   .     S
Au15   S32     2.371   .     S
Au15   S31     2.364   .     S
Au16   S37     2.345   .     S
Au16   S24     2.347   .     S
Au17   S26     2.355   .     S
Au17   S39     2.373   .     S
Au18   S33     2.382   .     S
Au19   S34     2.318   .     S
Au19   S27     2.316   .     S
Au20   S35     2.376   .     S
Au21   S38     2.392   .     S
Au22   S41     2.310   .     S
Au22   S28     2.319   .     S
S24    S36     2.075   .     S
S25    Au44    2.345   .     S
S26    Au44    2.371   .     S
S28    S39     2.081   .     S
S29    Au42    2.483   .     S
S30    S35     2.214   .     S
Au42   Au45    2.780   .     S
