data_27-20
_audit_creation_date              2023-04-12
_audit_creation_method            'Materials Studio'
_symmetry_space_group_name_H-M    'P1'
_symmetry_Int_Tables_number       1
_symmetry_cell_setting            triclinic
loop_
_symmetry_equiv_pos_as_xyz
  x,y,z
_cell_length_a                    20.0000
_cell_length_b                    20.0000
_cell_length_c                    20.0000
_cell_angle_alpha                 90.0000
_cell_angle_beta                  90.0000
_cell_angle_gamma                 90.0000
loop_
_atom_site_label
_atom_site_type_symbol
_atom_site_fract_x
_atom_site_fract_y
_atom_site_fract_z
_atom_site_U_iso_or_equiv
_atom_site_adp_type
_atom_site_occupancy
Au1    Au    0.39340   0.37760   0.46442   0.00000  Uiso   1.00
Au2    Au    0.25813   0.35824   0.35735   0.00000  Uiso   1.00
S1     S     0.31399   0.29115   0.43576   0.00000  Uiso   1.00
Au3    Au    0.61689   0.38382   0.47556   0.00000  Uiso   1.00
Au4    Au    0.49559   0.35962   0.34794   0.00000  Uiso   1.00
S2     S     0.57600   0.29350   0.40447   0.00000  Uiso   1.00
Au5    Au    0.74074   0.31278   0.52615   0.00000  Uiso   1.00
Au6    Au    0.72769   0.36876   0.35768   0.00000  Uiso   1.00
S3     S     0.77255   0.27812   0.41836   0.00000  Uiso   1.00
Au7    Au    0.23817   0.65360   0.41535   0.00000  Uiso   1.00
Au8    Au    0.23914   0.52681   0.29586   0.00000  Uiso   1.00
S4     S     0.26999   0.64067   0.30243   0.00000  Uiso   1.00
Au9    Au    0.37164   0.58890   0.45709   0.00000  Uiso   1.00
Au10   Au    0.26745   0.49903   0.45155   0.00000  Uiso   1.00
Au11   Au    0.37223   0.48851   0.36247   0.00000  Uiso   1.00
S5     S     0.19688   0.41864   0.27683   0.00000  Uiso   1.00
Au12   Au    0.71084   0.48374   0.48246   0.00000  Uiso   1.00
Au13   Au    0.75538   0.60043   0.34874   0.00000  Uiso   1.00
S6     S     0.68143   0.45204   0.28908   0.00000  Uiso   1.00
S7     S     0.80536   0.54680   0.44019   0.00000  Uiso   1.00
S8     S     0.47905   0.64834   0.26367   0.00000  Uiso   1.00
S9     S     0.71316   0.66486   0.25968   0.00000  Uiso   1.00
Au14   Au    0.22136   0.37444   0.56682   0.00000  Uiso   1.00
S10    S     0.26509   0.30581   0.65154   0.00000  Uiso   1.00
Au15   Au    0.49664   0.38615   0.56275   0.00000  Uiso   1.00
S11    S     0.49992   0.29969   0.64831   0.00000  Uiso   1.00
Au16   Au    0.25700   0.59419   0.58197   0.00000  Uiso   1.00
Au17   Au    0.38954   0.48123   0.55981   0.00000  Uiso   1.00
S12    S     0.16829   0.43859   0.48429   0.00000  Uiso   1.00
S13    S     0.30731   0.50852   0.64447   0.00000  Uiso   1.00
Au18   Au    0.48308   0.60233   0.59013   0.00000  Uiso   1.00
Au19   Au    0.61038   0.48017   0.57569   0.00000  Uiso   1.00
S14    S     0.54126   0.52958   0.66332   0.00000  Uiso   1.00
Au20   Au    0.71755   0.61385   0.57944   0.00000  Uiso   1.00
Au21   Au    0.75208   0.44771   0.63205   0.00000  Uiso   1.00
S15    S     0.80340   0.55375   0.63343   0.00000  Uiso   1.00
S16    S     0.71236   0.33666   0.63815   0.00000  Uiso   1.00
S17    S     0.19736   0.67753   0.52310   0.00000  Uiso   1.00
S18    S     0.41296   0.67721   0.53170   0.00000  Uiso   1.00
S19    S     0.63510   0.67877   0.52738   0.00000  Uiso   1.00
Au22   Au    0.58287   0.58427   0.47102   0.00000  Uiso   1.00
Au23   Au    0.49004   0.47984   0.46160   0.00000  Uiso   1.00
Au24   Au    0.48852   0.57951   0.36421   0.00000  Uiso   1.00
Au25   Au    0.59774   0.48797   0.36995   0.00000  Uiso   1.00
S20    S     0.41556   0.41194   0.27769   0.00000  Uiso   1.00
Au26   Au    0.38252   0.30781   0.64796   0.00000  Uiso   1.00
Au27   Au    0.59615   0.65548   0.26451   0.00000  Uiso   1.00
loop_
_geom_bond_atom_site_label_1
_geom_bond_atom_site_label_2
_geom_bond_distance
_geom_bond_site_symmetry_2
_ccdc_geom_bond_type
Au1    S1      2.417   .     S
Au2    S5      2.357   .     S
Au2    S1      2.347   .     S
Au3    S2      2.440   .     S
Au3    Au12    2.747   .     S
Au3    Au19    2.782   .     S
Au4    S20     2.373   .     S
Au4    S2      2.369   .     S
Au5    S3      2.352   .     S
Au5    S16     2.360   .     S
Au6    S6      2.348   .     S
Au6    S3      2.359   .     S
Au7    S17     2.354   .     S
Au7    S4      2.361   .     S
Au8    S5      2.354   .     S
Au8    S4      2.363   .     S
Au9    Au10    2.754   .     S
Au9    Au11    2.759   .     S
Au9    S18     2.455   .     S
Au10   S12     2.413   .     S
Au10   Au11    2.759   .     S
Au11   S20     2.444   .     S
Au12   S7      2.425   .     S
Au12   Au19    2.742   .     S
Au13   S9      2.355   .     S
Au13   S7      2.344   .     S
S6     Au25    2.436   .     S
S8     Au24    2.444   .     S
S8     Au27    2.346   .     S
S9     Au27    2.350   .     S
Au14   S10     2.349   .     S
Au14   S12     2.345   .     S
S10    Au26    2.350   .     S
Au15   S11     2.434   .     S
Au15   Au23    2.761   .     S
S11    Au26    2.354   .     S
Au16   S13     2.348   .     S
Au16   S17     2.364   .     S
Au17   S13     2.423   .     S
Au18   S18     2.361   .     S
Au18   S14     2.369   .     S
Au19   S14     2.441   .     S
Au20   S15     2.358   .     S
Au20   S19     2.343   .     S
Au21   S15     2.356   .     S
Au21   S16     2.362   .     S
S19    Au22    2.436   .     S
