data_28-20-B-ch3
_audit_creation_date              2022-11-25
_audit_creation_method            'Materials Studio'
_symmetry_space_group_name_H-M    'P1'
_symmetry_Int_Tables_number       1
_symmetry_cell_setting            triclinic
loop_
_symmetry_equiv_pos_as_xyz
  x,y,z
_cell_length_a                    20.0000
_cell_length_b                    20.0000
_cell_length_c                    26.4907
_cell_angle_alpha                 90.0000
_cell_angle_beta                  90.0000
_cell_angle_gamma                 90.0000
loop_
_atom_site_label
_atom_site_type_symbol
_atom_site_fract_x
_atom_site_fract_y
_atom_site_fract_z
_atom_site_U_iso_or_equiv
_atom_site_adp_type
_atom_site_occupancy
Au1    Au    0.49346  -0.50218   0.54580   0.00000  Uiso   1.00
Au2    Au    0.56855  -0.40870   0.46717   0.00000  Uiso   1.00
Au3    Au    0.63374  -0.50505   0.40819   0.00000  Uiso   1.00
Au4    Au    0.49250  -0.50235   0.67859   0.00000  Uiso   1.00
Au5    Au    0.42669  -0.40149   0.59635   0.00000  Uiso   1.00
Au6    Au    0.63222  -0.49880   0.54882   0.00000  Uiso   1.00
Au7    Au    0.58062  -0.37783   0.60202   0.00000  Uiso   1.00
Au8    Au    0.41936  -0.59563   0.46638   0.00000  Uiso   1.00
Au9    Au    0.55930  -0.60292   0.59681   0.00000  Uiso   1.00
Au10   Au    0.40496  -0.62679   0.60132   0.00000  Uiso   1.00
Au11   Au    0.42708  -0.35547   0.72799   0.00000  Uiso   1.00
Au12   Au    0.49191  -0.50083   0.80077   0.00000  Uiso   1.00
Au13   Au    0.55751  -0.64677   0.72879   0.00000  Uiso   1.00
Au14   Au    0.75740  -0.50166   0.47896   0.00000  Uiso   1.00
S1     S     0.57945  -0.42209   0.68450   0.00000  Uiso   1.00
S2     S     0.38689  -0.31502   0.65092   0.00000  Uiso   1.00
S3     S     0.58265  -0.31725   0.52547   0.00000  Uiso   1.00
S4     S     0.59799  -0.68894   0.65227   0.00000  Uiso   1.00
S5     S     0.46913  -0.38598   0.80725   0.00000  Uiso   1.00
S6     S     0.51500  -0.61559   0.80780   0.00000  Uiso   1.00
S7     S     0.40412  -0.68702   0.52457   0.00000  Uiso   1.00
S8     S     0.75146  -0.47836   0.56569   0.00000  Uiso   1.00
S9     S     0.75337  -0.52484   0.39213   0.00000  Uiso   1.00
S10    S     0.40524  -0.58236   0.68379   0.00000  Uiso   1.00
Au15   Au    0.49475  -0.50198   0.41009   0.00000  Uiso   1.00
Au16   Au    0.41905  -0.40869   0.48868   0.00000  Uiso   1.00
Au17   Au    0.35453  -0.50559   0.54769   0.00000  Uiso   1.00
Au18   Au    0.49534  -0.50133   0.27725   0.00000  Uiso   1.00
Au19   Au    0.56088  -0.40087   0.35969   0.00000  Uiso   1.00
Au20   Au    0.35588  -0.49884   0.40683   0.00000  Uiso   1.00
Au21   Au    0.40716  -0.37707   0.35400   0.00000  Uiso   1.00
Au22   Au    0.56854  -0.59553   0.48924   0.00000  Uiso   1.00
Au23   Au    0.42912  -0.60264   0.35881   0.00000  Uiso   1.00
Au24   Au    0.58276  -0.62584   0.35437   0.00000  Uiso   1.00
Au25   Au    0.55906  -0.35519   0.22780   0.00000  Uiso   1.00
Au26   Au    0.49556  -0.50046   0.15479   0.00000  Uiso   1.00
Au27   Au    0.43221  -0.64678   0.22698   0.00000  Uiso   1.00
Au28   Au    0.23067  -0.50269   0.47670   0.00000  Uiso   1.00
S11    S     0.40820  -0.42122   0.27146   0.00000  Uiso   1.00
S12    S     0.60104  -0.31522   0.30449   0.00000  Uiso   1.00
S13    S     0.40550  -0.31679   0.43067   0.00000  Uiso   1.00
S14    S     0.39021  -0.68843   0.30318   0.00000  Uiso   1.00
S15    S     0.51548  -0.38511   0.14883   0.00000  Uiso   1.00
S16    S     0.47563  -0.61575   0.14820   0.00000  Uiso   1.00
S17    S     0.58351  -0.68667   0.43084   0.00000  Uiso   1.00
S18    S     0.23654  -0.47918   0.38998   0.00000  Uiso   1.00
S19    S     0.23502  -0.52643   0.56341   0.00000  Uiso   1.00
S20    S     0.58283  -0.58115   0.27199   0.00000  Uiso   1.00
loop_
_geom_bond_atom_site_label_1
_geom_bond_atom_site_label_2
_geom_bond_distance
_geom_bond_site_symmetry_2
_ccdc_geom_bond_type
Au1    Au17    2.780   .     S
Au1    Au6     2.777   .     S
Au1    Au5     2.763   .     S
Au1    Au9     2.760   .     S
Au2    S3      2.410   .     S
Au3    S9      2.462   .     S
Au3    Au15    2.781   .     S
Au4    S10     2.372   .     S
Au4    S1      2.372   .     S
Au5    S2      2.390   .     S
Au6    S8      2.461   .     S
Au7    S1      2.358   .     S
Au7    S3      2.363   .     S
Au8    S7      2.410   .     S
Au9    S4      2.391   .     S
Au10   S10     2.359   .     S
Au10   S7      2.363   .     S
Au11   S2      2.339   .     S
Au11   S5      2.343   .     S
Au12   S5      2.348   .     S
Au12   S6      2.348   .     S
Au13   S4      2.340   .     S
Au13   S6      2.344   .     S
Au14   S8      2.348   .     S
Au14   S9      2.348   .     S
Au15   Au20    2.779   .     S
Au15   Au19    2.761   .     S
Au15   Au23    2.761   .     S
Au16   S13     2.411   .     S
Au17   S19     2.462   .     S
Au18   S11     2.372   .     S
Au18   S20     2.373   .     S
Au19   S12     2.391   .     S
Au20   S18     2.460   .     S
Au21   S11     2.358   .     S
Au21   S13     2.362   .     S
Au22   S17     2.409   .     S
Au23   S14     2.392   .     S
Au24   S20     2.358   .     S
Au24   S17     2.363   .     S
Au25   S15     2.344   .     S
Au25   S12     2.339   .     S
Au26   S15     2.346   .     S
Au26   S16     2.346   .     S
Au27   S16     2.344   .     S
Au27   S14     2.340   .     S
Au28   S18     2.348   .     S
Au28   S19     2.347   .     S
