data_28-22-ch3
_audit_creation_date              2022-11-25
_audit_creation_method            'Materials Studio'
_symmetry_space_group_name_H-M    'P1'
_symmetry_Int_Tables_number       1
_symmetry_cell_setting            triclinic
loop_
_symmetry_equiv_pos_as_xyz
  x,y,z
_cell_length_a                    20.0000
_cell_length_b                    20.0000
_cell_length_c                    20.0000
_cell_angle_alpha                 90.0000
_cell_angle_beta                  90.0000
_cell_angle_gamma                 90.0000
loop_
_atom_site_label
_atom_site_type_symbol
_atom_site_fract_x
_atom_site_fract_y
_atom_site_fract_z
_atom_site_U_iso_or_equiv
_atom_site_adp_type
_atom_site_occupancy
Au1    Au    1.67316   2.48428   0.24880   0.00000  Uiso   1.00
Au2    Au    1.43007   2.37944   0.45132   0.00000  Uiso   1.00
Au3    Au    1.47895   2.25302   0.69459   0.00000  Uiso   1.00
Au4    Au    1.58763   2.59555   0.52648   0.00000  Uiso   1.00
Au5    Au    1.45967   2.59286   0.62713   0.00000  Uiso   1.00
Au6    Au    1.54063   2.40227   0.33399   0.00000  Uiso   1.00
Au7    Au    1.68684   2.70132   0.47627   0.00000  Uiso   1.00
Au8    Au    1.39238   2.38851   0.67587   0.00000  Uiso   1.00
Au9    Au    1.29896   2.72389   0.57071   0.00000  Uiso   1.00
Au10   Au    1.57372   2.34652   0.18211   0.00000  Uiso   1.00
Au11   Au    1.35001   2.30207   0.80481   0.00000  Uiso   1.00
Au12   Au    1.52967   2.47763   0.46915   0.00000  Uiso   1.00
Au13   Au    1.51356   2.37055   0.56240   0.00000  Uiso   1.00
Au14   Au    1.37636   2.60457   0.51165   0.00000  Uiso   1.00
Au15   Au    1.27674   2.46734   0.77960   0.00000  Uiso   1.00
Au16   Au    1.50489   2.60451   0.41156   0.00000  Uiso   1.00
Au17   Au    1.65393   2.39470   0.47734   0.00000  Uiso   1.00
Au18   Au    1.59191   2.70784   0.33976   0.00000  Uiso   1.00
Au19   Au    1.28804   2.41421   0.52393   0.00000  Uiso   1.00
Au20   Au    1.39371   2.71192   0.69782   0.00000  Uiso   1.00
Au21   Au    1.45242   2.27494   0.29420   0.00000  Uiso   1.00
Au22   Au    1.42067   2.47696   0.55507   0.00000  Uiso   1.00
Au23   Au    1.63249   2.55031   0.40364   0.00000  Uiso   1.00
Au24   Au    1.32704   2.54957   0.63011   0.00000  Uiso   1.00
Au25   Au    1.73243   2.54487   0.53914   0.00000  Uiso   1.00
Au26   Au    1.52808   2.56391   0.26707   0.00000  Uiso   1.00
Au27   Au    1.22756   2.58219   0.49726   0.00000  Uiso   1.00
Au28   Au    1.41668   2.54675   0.76615   0.00000  Uiso   1.00
S1     S     1.51811   2.24487   0.20109   0.00000  Uiso   1.00
S2     S     1.73342   2.52166   0.34203   0.00000  Uiso   1.00
S3     S     1.40005   2.66383   0.40929   0.00000  Uiso   1.00
S4     S     1.56576   2.65037   0.63089   0.00000  Uiso   1.00
S5     S     1.23040   2.54415   0.70370   0.00000  Uiso   1.00
S6     S     1.38819   2.20447   0.75143   0.00000  Uiso   1.00
S7     S     1.45534   2.47532   0.29409   0.00000  Uiso   1.00
S8     S     1.59469   2.76643   0.44213   0.00000  Uiso   1.00
S9     S     1.68733   2.44432   0.57943   0.00000  Uiso   1.00
S10    S     1.46159   2.43829   0.75886   0.00000  Uiso   1.00
S11    S     1.40246   2.77392   0.59755   0.00000  Uiso   1.00
S12    S     1.24977   2.48394   0.43624   0.00000  Uiso   1.00
S13    S     1.62361   2.44731   0.14882   0.00000  Uiso   1.00
S14    S     1.37855   2.29367   0.38365   0.00000  Uiso   1.00
S15    S     1.57161   2.29732   0.63843   0.00000  Uiso   1.00
S16    S     1.31215   2.39484   0.86561   0.00000  Uiso   1.00
S17    S     1.62884   2.33569   0.37816   0.00000  Uiso   1.00
S18    S     1.78558   2.64504   0.50711   0.00000  Uiso   1.00
S19    S     1.59276   2.65699   0.23352   0.00000  Uiso   1.00
S20    S     1.30466   2.33880   0.61255   0.00000  Uiso   1.00
S21    S     1.19133   2.68085   0.55058   0.00000  Uiso   1.00
S22    S     1.37835   2.65397   0.79864   0.00000  Uiso   1.00
loop_
_geom_bond_atom_site_label_1
_geom_bond_atom_site_label_2
_geom_bond_distance
_geom_bond_site_symmetry_2
_ccdc_geom_bond_type
Au1    S2      2.343   .     S
Au1    S13     2.351   .     S
Au2    S14     2.416   .     S
Au3    S6      2.352   .     S
Au3    S15     2.341   .     S
Au4    S4      2.399   .     S
Au4    Au23    2.768   .     S
Au5    S4      2.415   .     S
Au6    S7      2.384   .     S
Au6    S17     2.380   .     S
Au7    S8      2.358   .     S
Au7    S18     2.355   .     S
Au8    S10     2.380   .     S
Au8    S20     2.381   .     S
Au9    S11     2.361   .     S
Au9    S21     2.353   .     S
Au10   S13     2.346   .     S
Au10   S1      2.348   .     S
Au11   S16     2.344   .     S
Au11   S6      2.352   .     S
Au12   Au22    2.776   .     S
Au13   S15     2.409   .     S
Au14   S3      2.413   .     S
Au15   S5      2.350   .     S
Au15   S16     2.359   .     S
Au16   S3      2.410   .     S
Au16   Au23    2.777   .     S
Au17   S17     2.362   .     S
Au17   S9      2.366   .     S
Au18   S19     2.356   .     S
Au18   S8      2.360   .     S
Au19   S20     2.351   .     S
Au19   S12     2.368   .     S
Au20   S11     2.364   .     S
Au20   S22     2.346   .     S
Au21   S1      2.357   .     S
Au21   S14     2.350   .     S
Au23   S2      2.433   .     S
Au24   S5      2.432   .     S
Au25   S9      2.347   .     S
Au25   S18     2.357   .     S
Au26   S19     2.364   .     S
Au26   S7      2.355   .     S
Au27   S12     2.355   .     S
Au27   S21     2.357   .     S
Au28   S10     2.352   .     S
Au28   S22     2.368   .     S
