data_24-16
_audit_creation_date              2023-04-12
_audit_creation_method            'Materials Studio'
_symmetry_space_group_name_H-M    'P1'
_symmetry_Int_Tables_number       1
_symmetry_cell_setting            triclinic
loop_
_symmetry_equiv_pos_as_xyz
  x,y,z
_cell_length_a                    20.0000
_cell_length_b                    20.0000
_cell_length_c                    20.0000
_cell_angle_alpha                 90.0000
_cell_angle_beta                  90.0000
_cell_angle_gamma                 90.0000
loop_
_atom_site_label
_atom_site_type_symbol
_atom_site_fract_x
_atom_site_fract_y
_atom_site_fract_z
_atom_site_U_iso_or_equiv
_atom_site_adp_type
_atom_site_occupancy
Au1    Au    0.59351   1.46546   0.57188   0.00000  Uiso   1.00
Au2    Au    0.60706   1.32819   0.60495   0.00000  Uiso   1.00
Au3    Au    0.63548   1.54534   0.46273   0.00000  Uiso   1.00
Au4    Au    0.59155   1.60827   0.58447   0.00000  Uiso   1.00
Au5    Au    0.43858   1.64171   0.63587   0.00000  Uiso   1.00
Au6    Au    0.45661   1.46539   0.65088   0.00000  Uiso   1.00
Au7    Au    0.61505   1.42555   0.70343   0.00000  Uiso   1.00
Au8    Au    0.71796   1.41219   0.61040   0.00000  Uiso   1.00
Au9    Au    0.78896   1.49535   0.49780   0.00000  Uiso   1.00
Au10   Au    0.63663   1.57486   0.74260   0.00000  Uiso   1.00
S11    S     0.40400   1.72806   0.56313   0.00000  Uiso   1.00
S12    S     0.46614   1.56234   0.71809   0.00000  Uiso   1.00
S13    S     0.61555   1.48004   0.81038   0.00000  Uiso   1.00
S14    S     0.65215   1.66654   0.67088   0.00000  Uiso   1.00
S15    S     0.58375   1.21085   0.58601   0.00000  Uiso   1.00
S16    S     0.74108   1.54348   0.40203   0.00000  Uiso   1.00
S17    S     0.83251   1.44191   0.59342   0.00000  Uiso   1.00
Au18   Au    0.41169   1.46651   0.43146   0.00000  Uiso   1.00
Au19   Au    0.39636   1.32944   0.39902   0.00000  Uiso   1.00
Au20   Au    0.37088   1.54639   0.54094   0.00000  Uiso   1.00
Au21   Au    0.41498   1.60900   0.41907   0.00000  Uiso   1.00
Au22   Au    0.56882   1.64111   0.36778   0.00000  Uiso   1.00
Au23   Au    0.54843   1.46487   0.35253   0.00000  Uiso   1.00
Au24   Au    0.38916   1.42635   0.29984   0.00000  Uiso   1.00
Au25   Au    0.28640   1.41495   0.39299   0.00000  Uiso   1.00
Au26   Au    0.21738   1.49923   0.50660   0.00000  Uiso   1.00
Au27   Au    0.37047   1.57614   0.26090   0.00000  Uiso   1.00
S28    S     0.60429   1.72699   0.44059   0.00000  Uiso   1.00
S29    S     0.54070   1.56203   0.28555   0.00000  Uiso   1.00
S30    S     0.39056   1.48110   0.19309   0.00000  Uiso   1.00
S31    S     0.35573   1.66817   0.33234   0.00000  Uiso   1.00
S32    S     0.41718   1.21169   0.41861   0.00000  Uiso   1.00
S33    S     0.26589   1.54592   0.60278   0.00000  Uiso   1.00
S34    S     0.17258   1.44657   0.41114   0.00000  Uiso   1.00
Au35   Au    0.50309   1.54368   0.50160   0.00000  Uiso   1.00
Au36   Au    0.50207   1.36792   0.50174   0.00000  Uiso   1.00
Au37   Au    0.50395   1.71910   0.50164   0.00000  Uiso   1.00
Au38   Au    0.50063   1.21543   0.50225   0.00000  Uiso   1.00
S39    S     0.43914   1.35968   0.60330   0.00000  Uiso   1.00
S40    S     0.56470   1.35889   0.40011   0.00000  Uiso   1.00
loop_
_geom_bond_atom_site_label_1
_geom_bond_atom_site_label_2
_geom_bond_distance
_geom_bond_site_symmetry_2
_ccdc_geom_bond_type
Au1    Au35    2.773   .     S
Au2    S15     2.423   .     S
Au2    Au7     2.774   .     S
Au3    Au35    2.760   .     S
Au3    S16     2.436   .     S
Au4    S14     2.411   .     S
Au4    Au35    2.747   .     S
Au5    S11     2.362   .     S
Au5    S12     2.351   .     S
Au6    S39     2.345   .     S
Au6    S12     2.367   .     S
Au7    S13     2.401   .     S
Au8    S17     2.391   .     S
Au9    S16     2.348   .     S
Au9    S17     2.358   .     S
Au10   S13     2.369   .     S
Au10   S14     2.349   .     S
S11    Au37    2.354   .     S
S15    Au38    2.362   .     S
Au18   Au35    2.773   .     S
Au19   Au24    2.777   .     S
Au19   S32     2.423   .     S
Au20   Au35    2.759   .     S
Au20   S33     2.437   .     S
Au21   S31     2.411   .     S
Au21   Au35    2.745   .     S
Au22   S29     2.350   .     S
Au22   S28     2.361   .     S
Au23   S29     2.365   .     S
Au23   S40     2.346   .     S
Au24   S30     2.400   .     S
Au25   S34     2.390   .     S
Au26   S34     2.357   .     S
Au26   S33     2.348   .     S
Au27   S30     2.369   .     S
Au27   S31     2.349   .     S
S28    Au37    2.354   .     S
S32    Au38    2.364   .     S
Au36   S40     2.394   .     S
Au36   S39     2.395   .     S
