data_2e-17-15
_audit_creation_date              2023-04-12
_audit_creation_method            'Materials Studio'
_symmetry_space_group_name_H-M    'P1'
_symmetry_Int_Tables_number       1
_symmetry_cell_setting            triclinic
loop_
_symmetry_equiv_pos_as_xyz
  x,y,z
_cell_length_a                    20.0000
_cell_length_b                    20.0000
_cell_length_c                    20.0000
_cell_angle_alpha                 90.0000
_cell_angle_beta                  90.0000
_cell_angle_gamma                 90.0000
loop_
_atom_site_label
_atom_site_type_symbol
_atom_site_fract_x
_atom_site_fract_y
_atom_site_fract_z
_atom_site_U_iso_or_equiv
_atom_site_adp_type
_atom_site_occupancy
Au1    Au    0.73864   0.48868   0.21695   0.00000  Uiso   1.00
Au2    Au    0.50585   0.51020   0.44969   0.00000  Uiso   1.00
Au3    Au    0.26336   0.49181   0.70924   0.00000  Uiso   1.00
Au4    Au    0.63260   0.33750   0.20942   0.00000  Uiso   1.00
Au5    Au    0.39318   0.35370   0.46720   0.00000  Uiso   1.00
Au6    Au    0.62633   0.35351   0.45016   0.00000  Uiso   1.00
Au7    Au    0.37778   0.62735   0.47021   0.00000  Uiso   1.00
Au8    Au    0.59707   0.60940   0.45780   0.00000  Uiso   1.00
Au9    Au    0.40750   0.59745   0.71584   0.00000  Uiso   1.00
Au10   Au    0.63104   0.50526   0.34327   0.00000  Uiso   1.00
Au11   Au    0.38618   0.48818   0.58458   0.00000  Uiso   1.00
Au12   Au    0.52320   0.33594   0.33527   0.00000  Uiso   1.00
Au13   Au    0.49858   0.63097   0.34217   0.00000  Uiso   1.00
Au14   Au    0.74434   0.61877   0.35441   0.00000  Uiso   1.00
Au15   Au    0.26436   0.36407   0.58899   0.00000  Uiso   1.00
Au16   Au    0.51112   0.35084   0.56973   0.00000  Uiso   1.00
Au17   Au    0.50095   0.59307   0.55513   0.00000  Uiso   1.00
S1     S     0.57723   0.25400   0.27070   0.00000  Uiso   1.00
S2     S     0.55790   0.56149   0.26789   0.00000  Uiso   1.00
S3     S     0.81031   0.56176   0.27516   0.00000  Uiso   1.00
S4     S     0.33421   0.28330   0.54048   0.00000  Uiso   1.00
S5     S     0.56009   0.26921   0.49974   0.00000  Uiso   1.00
S6     S     0.30573   0.55737   0.53121   0.00000  Uiso   1.00
S7     S     0.33308   0.54259   0.78821   0.00000  Uiso   1.00
S8     S     0.68316   0.41779   0.14112   0.00000  Uiso   1.00
S9     S     0.45533   0.41606   0.38935   0.00000  Uiso   1.00
S10    S     0.70046   0.43406   0.40834   0.00000  Uiso   1.00
S11    S     0.43893   0.70730   0.40878   0.00000  Uiso   1.00
S12    S     0.68968   0.68202   0.43697   0.00000  Uiso   1.00
S13    S     0.18801   0.43995   0.63572   0.00000  Uiso   1.00
S14    S     0.47004   0.43014   0.64552   0.00000  Uiso   1.00
S15    S     0.48469   0.65915   0.65368   0.00000  Uiso   1.00
loop_
_geom_bond_atom_site_label_1
_geom_bond_atom_site_label_2
_geom_bond_distance
_geom_bond_site_symmetry_2
_ccdc_geom_bond_type
Au1    S8      2.354   .     S
Au1    S3      2.355   .     S
Au2    Au8     2.700   .     S
Au2    S9      2.454   .     S
Au2    Au17    2.684   .     S
Au3    S7      2.339   .     S
Au3    S13     2.347   .     S
Au4    S8      2.338   .     S
Au4    S1      2.349   .     S
Au5    S9      2.351   .     S
Au5    S4      2.350   .     S
Au6    S10     2.344   .     S
Au6    S5      2.363   .     S
Au7    S6      2.350   .     S
Au7    S11     2.358   .     S
Au8    S12     2.390   .     S
Au8    Au17    2.755   .     S
Au9    S7      2.348   .     S
Au9    S15     2.335   .     S
Au10   S2      2.383   .     S
Au10   S10     2.377   .     S
Au11   S14     2.376   .     S
Au11   S6      2.375   .     S
Au12   S9      2.362   .     S
Au12   S1      2.350   .     S
Au13   S2      2.355   .     S
Au13   S11     2.351   .     S
Au14   S3      2.357   .     S
Au14   S12     2.350   .     S
Au15   S4      2.346   .     S
Au15   S13     2.347   .     S
Au16   S14     2.343   .     S
Au16   S5      2.363   .     S
Au17   S15     2.395   .     S
