data_30-21
_audit_creation_date              2023-04-12
_audit_creation_method            'Materials Studio'
_symmetry_space_group_name_H-M    'P1'
_symmetry_Int_Tables_number       1
_symmetry_cell_setting            triclinic
loop_
_symmetry_equiv_pos_as_xyz
  x,y,z
_cell_length_a                    20.0000
_cell_length_b                    20.0000
_cell_length_c                    20.0000
_cell_angle_alpha                 90.0000
_cell_angle_beta                  90.0000
_cell_angle_gamma                 90.0000
loop_
_atom_site_label
_atom_site_type_symbol
_atom_site_fract_x
_atom_site_fract_y
_atom_site_fract_z
_atom_site_U_iso_or_equiv
_atom_site_adp_type
_atom_site_occupancy
Au1    Au    1.37528   0.34648   0.51507   0.00000  Uiso   1.00
Au2    Au    1.58453   0.35809   0.53634   0.00000  Uiso   1.00
Au3    Au    1.35040   0.56242   0.52359   0.00000  Uiso   1.00
Au4    Au    1.62089   0.30367   0.67913   0.00000  Uiso   1.00
Au5    Au    1.28058   0.59558   0.66304   0.00000  Uiso   1.00
Au6    Au    1.55676   0.56400   0.52787   0.00000  Uiso   1.00
Au7    Au    1.33589   0.19769   0.41903   0.00000  Uiso   1.00
Au8    Au    1.70530   0.81215   0.42048   0.00000  Uiso   1.00
Au9    Au    1.67389   0.46318   0.53881   0.00000  Uiso   1.00
Au10   Au    1.43966   0.66726   0.53278   0.00000  Uiso   1.00
Au11   Au    1.64499   0.66979   0.52046   0.00000  Uiso   1.00
Au12   Au    1.74038   0.43198   0.67569   0.00000  Uiso   1.00
Au13   Au    1.39593   0.72102   0.67622   0.00000  Uiso   1.00
Au14   Au    1.46445   0.45336   0.51863   0.00000  Uiso   1.00
Au15   Au    1.46971   0.30275   0.40747   0.00000  Uiso   1.00
Au16   Au    1.69468   0.58288   0.40953   0.00000  Uiso   1.00
Au17   Au    1.46443   0.35586   0.62279   0.00000  Uiso   1.00
Au18   Au    1.66025   0.57911   0.62800   0.00000  Uiso   1.00
Au19   Au    1.44025   0.56904   0.62932   0.00000  Uiso   1.00
Au20   Au    1.46360   0.56006   0.42253   0.00000  Uiso   1.00
Au21   Au    1.59938   0.30512   0.31617   0.00000  Uiso   1.00
Au22   Au    1.43955   0.71666   0.30028   0.00000  Uiso   1.00
Au23   Au    1.33517   0.43115   0.39927   0.00000  Uiso   1.00
Au24   Au    1.55794   0.70940   0.40345   0.00000  Uiso   1.00
Au25   Au    1.35654   0.44455   0.61274   0.00000  Uiso   1.00
Au26   Au    1.55277   0.66757   0.62625   0.00000  Uiso   1.00
Au27   Au    1.57484   0.45630   0.63504   0.00000  Uiso   1.00
Au28   Au    1.57270   0.46824   0.42580   0.00000  Uiso   1.00
Au29   Au    1.48309   0.16650   0.31711   0.00000  Uiso   1.00
Au30   Au    1.57535   0.84243   0.29502   0.00000  Uiso   1.00
S1     S     1.61551   0.42069   0.32029   0.00000  Uiso   1.00
S2     S     1.39406   0.61591   0.33799   0.00000  Uiso   1.00
S3     S     1.64186   0.65905   0.33597   0.00000  Uiso   1.00
S4     S     1.73804   0.31441   0.66765   0.00000  Uiso   1.00
S5     S     1.28042   0.71364   0.65430   0.00000  Uiso   1.00
S6     S     1.38776   0.34806   0.33351   0.00000  Uiso   1.00
S7     S     1.59711   0.18815   0.30214   0.00000  Uiso   1.00
S8     S     1.46632   0.82272   0.25655   0.00000  Uiso   1.00
S9     S     1.29634   0.25405   0.51282   0.00000  Uiso   1.00
S10    S     1.55687   0.25786   0.47439   0.00000  Uiso   1.00
S11    S     1.26464   0.50200   0.46257   0.00000  Uiso   1.00
S12    S     1.76293   0.50647   0.46865   0.00000  Uiso   1.00
S13    S     1.47098   0.76272   0.46415   0.00000  Uiso   1.00
S14    S     1.73660   0.74946   0.51360   0.00000  Uiso   1.00
S15    S     1.50816   0.28012   0.70567   0.00000  Uiso   1.00
S16    S     1.26827   0.48060   0.68633   0.00000  Uiso   1.00
S17    S     1.75280   0.54726   0.69856   0.00000  Uiso   1.00
S18    S     1.50564   0.73015   0.71825   0.00000  Uiso   1.00
S19    S     1.49336   0.50085   0.71671   0.00000  Uiso   1.00
S20    S     1.37024   0.13591   0.32524   0.00000  Uiso   1.00
S21    S     1.68555   0.87277   0.32184   0.00000  Uiso   1.00
loop_
_geom_bond_atom_site_label_1
_geom_bond_atom_site_label_2
_geom_bond_distance
_geom_bond_site_symmetry_2
_ccdc_geom_bond_type
Au1    S9      2.431   .     S
Au2    Au9     2.759   .     S
Au2    S10     2.421   .     S
Au3    Au10    2.760   .     S
Au3    S11     2.427   .     S
Au3    Au19    2.778   .     S
Au4    S15     2.364   .     S
Au4    S4      2.364   .     S
Au5    S5      2.368   .     S
Au5    S16     2.359   .     S
Au6    Au11    2.759   .     S
Au7    S20     2.349   .     S
Au7    S9      2.327   .     S
Au8    S21     2.349   .     S
Au8    S14     2.331   .     S
Au9    S12     2.427   .     S
Au9    Au27    2.765   .     S
Au10   S13     2.433   .     S
Au10   Au19    2.754   .     S
Au11   S14     2.432   .     S
Au12   S17     2.364   .     S
Au12   S4      2.357   .     S
Au13   S5      2.356   .     S
Au13   S18     2.357   .     S
Au15   S6      2.387   .     S
Au15   S10     2.374   .     S
Au16   S3      2.367   .     S
Au16   S12     2.366   .     S
Au17   S15     2.410   .     S
Au18   S17     2.413   .     S
Au19   S19     2.458   .     S
Au20   S2      2.458   .     S
Au21   S1      2.335   .     S
Au21   S7      2.357   .     S
Au22   S2      2.336   .     S
Au22   S8      2.356   .     S
Au23   S6      2.366   .     S
Au23   S11     2.367   .     S
Au24   S3      2.377   .     S
Au24   S13     2.374   .     S
Au25   S16     2.409   .     S
Au26   S18     2.417   .     S
Au27   S19     2.473   .     S
Au28   S1      2.468   .     S
Au29   S20     2.344   .     S
Au29   S7      2.340   .     S
Au30   S8      2.346   .     S
Au30   S21     2.348   .     S
