data_36-24-C-ch3
_audit_creation_date              2022-11-25
_audit_creation_method            'Materials Studio'
_symmetry_space_group_name_H-M    'P1'
_symmetry_Int_Tables_number       1
_symmetry_cell_setting            triclinic
loop_
_symmetry_equiv_pos_as_xyz
  x,y,z
_cell_length_a                    20.0000
_cell_length_b                    20.0000
_cell_length_c                    20.0000
_cell_angle_alpha                 90.0000
_cell_angle_beta                  90.0000
_cell_angle_gamma                 90.0000
loop_
_atom_site_label
_atom_site_type_symbol
_atom_site_fract_x
_atom_site_fract_y
_atom_site_fract_z
_atom_site_U_iso_or_equiv
_atom_site_adp_type
_atom_site_occupancy
Au1    Au    0.42312  -0.55378   0.50110   0.00000  Uiso   1.00
Au2    Au    0.41318  -0.45361   0.60289   0.00000  Uiso   1.00
Au3    Au    0.54817  -0.51053   0.58047   0.00000  Uiso   1.00
Au4    Au    0.39005  -0.41595   0.46645   0.00000  Uiso   1.00
Au5    Au    0.29823  -0.50178   0.53375   0.00000  Uiso   1.00
Au6    Au    0.44400  -0.58899   0.66156   0.00000  Uiso   1.00
Au7    Au    0.50535  -0.36498   0.66744   0.00000  Uiso   1.00
Au8    Au    0.44398  -0.68623   0.54224   0.00000  Uiso   1.00
Au9    Au    0.42757  -0.49812   0.34681   0.00000  Uiso   1.00
Au10   Au    0.53853  -0.49389   0.43661   0.00000  Uiso   1.00
Au11   Au    0.55390  -0.52535   0.72210   0.00000  Uiso   1.00
Au12   Au    0.55846  -0.63622   0.47787   0.00000  Uiso   1.00
Au13   Au    0.52411  -0.38447   0.52162   0.00000  Uiso   1.00
Au14   Au    0.57236  -0.63813   0.63805   0.00000  Uiso   1.00
Au15   Au    0.44003  -0.65746   0.40437   0.00000  Uiso   1.00
Au16   Au    0.42513  -0.45173   0.74355   0.00000  Uiso   1.00
Au17   Au    0.54270  -0.57922   0.32631   0.00000  Uiso   1.00
Au18   Au    0.28804  -0.58458   0.40677   0.00000  Uiso   1.00
Au19   Au    0.65101  -0.44655   0.51034   0.00000  Uiso   1.00
Au20   Au    0.29885  -0.64565   0.56954   0.00000  Uiso   1.00
Au21   Au    0.36452  -0.34464   0.67727   0.00000  Uiso   1.00
Au22   Au    0.55145  -0.43987   0.30952   0.00000  Uiso   1.00
Au23   Au    0.67321  -0.41915   0.65647   0.00000  Uiso   1.00
Au24   Au    0.38584  -0.25336   0.56100   0.00000  Uiso   1.00
Au25   Au    0.70172  -0.57094   0.57320   0.00000  Uiso   1.00
Au26   Au    0.46938  -0.73862   0.70646   0.00000  Uiso   1.00
Au27   Au    0.53234  -0.37558   0.82256   0.00000  Uiso   1.00
Au28   Au    0.44680  -0.59878   0.82428   0.00000  Uiso   1.00
Au29   Au    0.59295  -0.77987   0.53517   0.00000  Uiso   1.00
Au30   Au    0.42756  -0.61273   0.23147   0.00000  Uiso   1.00
Au31   Au    0.57273  -0.74308   0.36182   0.00000  Uiso   1.00
Au32   Au    0.45268  -0.23754   0.73363   0.00000  Uiso   1.00
Au33   Au    0.44457  -0.43794   0.20499   0.00000  Uiso   1.00
Au34   Au    0.46793  -0.32451   0.35829   0.00000  Uiso   1.00
Au35   Au    0.21555  -0.39950   0.62972   0.00000  Uiso   1.00
Au36   Au    0.69869  -0.39576   0.35549   0.00000  Uiso   1.00
S1     S     0.37882  -0.69108   0.30448   0.00000  Uiso   1.00
S2     S     0.60096  -0.67071   0.27294   0.00000  Uiso   1.00
S3     S     0.67891  -0.61545   0.46665   0.00000  Uiso   1.00
S4     S     0.47135  -0.53891   0.14997   0.00000  Uiso   1.00
S5     S     0.43924  -0.79106   0.60537   0.00000  Uiso   1.00
S6     S     0.39200  -0.49789   0.85027   0.00000  Uiso   1.00
S7     S     0.32274  -0.60438   0.67705   0.00000  Uiso   1.00
S8     S     0.46088  -0.28324   0.84235   0.00000  Uiso   1.00
S9     S     0.61614  -0.31654   0.64502   0.00000  Uiso   1.00
S10    S     0.51163  -0.28064   0.45895   0.00000  Uiso   1.00
S11    S     0.30548  -0.48669   0.34353   0.00000  Uiso   1.00
S12    S     0.18022  -0.48220   0.55381   0.00000  Uiso   1.00
S13    S     0.31899  -0.31534   0.48628   0.00000  Uiso   1.00
S14    S     0.75533  -0.41580   0.45625   0.00000  Uiso   1.00
S15    S     0.63927  -0.37558   0.25574   0.00000  Uiso   1.00
S16    S     0.73786  -0.51727   0.67231   0.00000  Uiso   1.00
S17    S     0.44983  -0.18112   0.62998   0.00000  Uiso   1.00
S18    S     0.50739  -0.69889   0.81116   0.00000  Uiso   1.00
S19    S     0.64881  -0.73242   0.62723   0.00000  Uiso   1.00
S20    S     0.60927  -0.46423   0.81129   0.00000  Uiso   1.00
S21    S     0.41335  -0.33446   0.25241   0.00000  Uiso   1.00
S22    S     0.26022  -0.68430   0.46448   0.00000  Uiso   1.00
S23    S     0.54222  -0.82669   0.43938   0.00000  Uiso   1.00
S24    S     0.24995  -0.31861   0.70764   0.00000  Uiso   1.00
loop_
_geom_bond_atom_site_label_1
_geom_bond_atom_site_label_2
_geom_bond_distance
_geom_bond_site_symmetry_2
_ccdc_geom_bond_type
Au4    S13     2.495   .     S
Au5    S12     2.426   .     S
Au6    S7      2.464   .     S
Au7    S9      2.459   .     S
Au8    S5      2.449   .     S
Au9    S11     2.453   .     S
Au10   Au22    2.774   .     S
Au11   S20     2.430   .     S
Au12   S3      2.455   .     S
Au13   S10     2.438   .     S
Au14   S19     2.437   .     S
Au15   S1      2.438   .     S
Au16   S6      2.418   .     S
Au17   S2      2.418   .     S
Au18   S11     2.357   .     S
Au18   S22     2.371   .     S
Au19   S14     2.429   .     S
Au20   S7      2.352   .     S
Au20   S22     2.368   .     S
Au21   S24     2.427   .     S
Au22   S15     2.428   .     S
Au23   S9      2.359   .     S
Au23   S16     2.371   .     S
Au24   S17     2.373   .     S
Au24   S13     2.357   .     S
Au25   S16     2.367   .     S
Au25   S3      2.354   .     S
Au26   S18     2.365   .     S
Au26   S5      2.356   .     S
Au27   S20     2.358   .     S
Au27   S8      2.369   .     S
Au28   S18     2.355   .     S
Au28   S6      2.354   .     S
Au29   S23     2.362   .     S
Au29   S19     2.353   .     S
Au30   S4      2.367   .     S
Au30   S1      2.353   .     S
Au31   S2      2.361   .     S
Au31   S23     2.361   .     S
Au32   S8      2.364   .     S
Au32   S17     2.361   .     S
Au33   S21     2.361   .     S
Au33   S4      2.361   .     S
Au34   S21     2.391   .     S
Au34   S10     2.364   .     S
Au35   S12     2.354   .     S
Au35   S24     2.349   .     S
Au36   S15     2.357   .     S
Au36   S14     2.346   .     S
