data_44-26-ch3
_audit_creation_date              2022-11-25
_audit_creation_method            'Materials Studio'
_symmetry_space_group_name_H-M    'P1'
_symmetry_Int_Tables_number       1
_symmetry_cell_setting            triclinic
loop_
_symmetry_equiv_pos_as_xyz
  x,y,z
_cell_length_a                    25.0000
_cell_length_b                    25.0000
_cell_length_c                    25.0000
_cell_angle_alpha                 90.0000
_cell_angle_beta                  90.0000
_cell_angle_gamma                 90.0000
loop_
_atom_site_label
_atom_site_type_symbol
_atom_site_fract_x
_atom_site_fract_y
_atom_site_fract_z
_atom_site_U_iso_or_equiv
_atom_site_adp_type
_atom_site_occupancy
Au1    Au    0.49107  -0.55203   0.52269   0.00000  Uiso   1.00
Au2    Au    0.50965  -0.43888   0.45275   0.00000  Uiso   1.00
Au3    Au    0.48155  -0.63863   0.44808   0.00000  Uiso   1.00
Au4    Au    0.58632  -0.61511   0.50042   0.00000  Uiso   1.00
Au5    Au    0.57192  -0.55002   0.60290   0.00000  Uiso   1.00
Au6    Au    0.53029  -0.45015   0.56459   0.00000  Uiso   1.00
Au7    Au    0.42145  -0.45769   0.52712   0.00000  Uiso   1.00
Au8    Au    0.43005  -0.52229   0.42538   0.00000  Uiso   1.00
Au9    Au    0.37023  -0.56800   0.51077   0.00000  Uiso   1.00
Au10   Au    0.30947  -0.44913   0.50860   0.00000  Uiso   1.00
Au11   Au    0.31569  -0.52410   0.41935   0.00000  Uiso   1.00
Au12   Au    0.37286  -0.61798   0.40562   0.00000  Uiso   1.00
Au13   Au    0.35160  -0.68742   0.50051   0.00000  Uiso   1.00
Au14   Au    0.25016  -0.58097   0.51656   0.00000  Uiso   1.00
Au15   Au    0.27080  -0.38840   0.39575   0.00000  Uiso   1.00
Au16   Au    0.38444  -0.29235   0.43092   0.00000  Uiso   1.00
Au17   Au    0.38296  -0.41326   0.42990   0.00000  Uiso   1.00
Au18   Au    0.36733  -0.35712   0.53101   0.00000  Uiso   1.00
Au19   Au    0.48663  -0.35053   0.52103   0.00000  Uiso   1.00
Au20   Au    0.45144  -0.27584   0.61099   0.00000  Uiso   1.00
Au21   Au    0.56890  -0.35407   0.61069   0.00000  Uiso   1.00
Au22   Au    0.44870  -0.39745   0.62288   0.00000  Uiso   1.00
Au23   Au    0.53430  -0.46662   0.67730   0.00000  Uiso   1.00
Au24   Au    0.64339  -0.38208   0.70805   0.00000  Uiso   1.00
Au25   Au    0.41967  -0.47197   0.73397   0.00000  Uiso   1.00
Au26   Au    0.50905  -0.58309   0.71882   0.00000  Uiso   1.00
Au27   Au    0.45082  -0.51863   0.62518   0.00000  Uiso   1.00
Au28   Au    0.58424  -0.64228   0.38119   0.00000  Uiso   1.00
Au29   Au    0.47822  -0.58812   0.34043   0.00000  Uiso   1.00
Au30   Au    0.57932  -0.53075   0.31257   0.00000  Uiso   1.00
Au31   Au    0.48434  -0.50586   0.22898   0.00000  Uiso   1.00
Au32   Au    0.49286  -0.46692   0.34339   0.00000  Uiso   1.00
Au33   Au    0.58494  -0.41138   0.27311   0.00000  Uiso   1.00
Au34   Au    0.68593  -0.62721   0.31072   0.00000  Uiso   1.00
Au35   Au    0.65892  -0.56455   0.41474   0.00000  Uiso   1.00
Au36   Au    0.61339  -0.50167   0.50424   0.00000  Uiso   1.00
Au37   Au    0.60967  -0.45320   0.39750   0.00000  Uiso   1.00
Au38   Au    0.60044  -0.38524   0.49913   0.00000  Uiso   1.00
Au39   Au    0.54465  -0.54393   0.42101   0.00000  Uiso   1.00
Au40   Au    0.68543  -0.32209   0.58337   0.00000  Uiso   1.00
Au41   Au    0.73194  -0.50749   0.52110   0.00000  Uiso   1.00
Au42   Au    0.68734  -0.68358   0.44326   0.00000  Uiso   1.00
Au43   Au    0.46370  -0.70797   0.34731   0.00000  Uiso   1.00
Au44   Au    0.63877  -0.44276   0.60215   0.00000  Uiso   1.00
S1     S     0.67040  -0.31774   0.49033   0.00000  Uiso   1.00
S2     S     0.72274  -0.49233   0.61361   0.00000  Uiso   1.00
S3     S     0.65080  -0.38845   0.33686   0.00000  Uiso   1.00
S4     S     0.74652  -0.52209   0.42914   0.00000  Uiso   1.00
S5     S     0.52385  -0.42441   0.20226   0.00000  Uiso   1.00
S6     S     0.65124  -0.55993   0.25426   0.00000  Uiso   1.00
S7     S     0.73349  -0.69128   0.36128   0.00000  Uiso   1.00
S8     S     0.64775  -0.68553   0.52858   0.00000  Uiso   1.00
S9     S     0.55587  -0.72944   0.34697   0.00000  Uiso   1.00
S10    S     0.43304  -0.58113   0.25389   0.00000  Uiso   1.00
S11    S     0.37157  -0.68898   0.33919   0.00000  Uiso   1.00
S12    S     0.44355  -0.70607   0.51093   0.00000  Uiso   1.00
S13    S     0.57988  -0.62122   0.66968   0.00000  Uiso   1.00
S14    S     0.43995  -0.55393   0.77588   0.00000  Uiso   1.00
S15    S     0.25862  -0.67165   0.49032   0.00000  Uiso   1.00
S16    S     0.36708  -0.56619   0.60883   0.00000  Uiso   1.00
S17    S     0.23524  -0.49462   0.55161   0.00000  Uiso   1.00
S18    S     0.39187  -0.38830   0.70136   0.00000  Uiso   1.00
S19    S     0.23845  -0.47658   0.38495   0.00000  Uiso   1.00
S20    S     0.35929  -0.28234   0.59160   0.00000  Uiso   1.00
S21    S     0.29306  -0.29661   0.40475   0.00000  Uiso   1.00
S22    S     0.54126  -0.26465   0.63779   0.00000  Uiso   1.00
S23    S     0.47315  -0.27503   0.45846   0.00000  Uiso   1.00
S24    S     0.42085  -0.40036   0.33953   0.00000  Uiso   1.00
S25    S     0.70676  -0.32021   0.67526   0.00000  Uiso   1.00
S26    S     0.58793  -0.44255   0.75449   0.00000  Uiso   1.00
loop_
_geom_bond_atom_site_label_1
_geom_bond_atom_site_label_2
_geom_bond_distance
_geom_bond_site_symmetry_2
_ccdc_geom_bond_type
Au3    S12     2.493   .     S
Au4    S8      2.440   .     S
Au5    S13     2.448   .     S
Au9    S16     2.453   .     S
Au10   S17     2.428   .     S
Au10   Au18    2.774   .     S
Au11   Au12    2.769   .     S
Au11   S19     2.425   .     S
Au12   S11     2.431   .     S
Au13   S15     2.371   .     S
Au13   S12     2.360   .     S
Au14   S17     2.359   .     S
Au14   S15     2.370   .     S
Au15   S21     2.372   .     S
Au15   S19     2.364   .     S
Au16   S21     2.379   .     S
Au16   S23     2.362   .     S
Au17   S24     2.471   .     S
Au18   S20     2.415   .     S
Au19   S23     2.474   .     S
Au20   S20     2.360   .     S
Au20   S22     2.360   .     S
Au21   S22     2.436   .     S
Au22   S18     2.433   .     S
Au23   S26     2.426   .     S
Au24   S26     2.357   .     S
Au24   S25     2.361   .     S
Au25   S18     2.350   .     S
Au25   S14     2.356   .     S
Au26   S13     2.357   .     S
Au26   S14     2.356   .     S
Au27   S16     2.442   .     S
Au28   S9      2.446   .     S
Au29   S10     2.447   .     S
Au30   S6      2.427   .     S
Au31   S10     2.361   .     S
Au31   S5      2.360   .     S
Au32   S24     2.453   .     S
Au33   S3      2.362   .     S
Au33   S5      2.361   .     S
Au34   S6      2.361   .     S
Au34   S7      2.362   .     S
Au35   S4      2.460   .     S
Au37   S3      2.444   .     S
Au38   S1      2.440   .     S
Au40   S25     2.359   .     S
Au40   S1      2.359   .     S
Au41   S4      2.356   .     S
Au41   S2      2.355   .     S
Au42   S7      2.360   .     S
Au42   S8      2.352   .     S
Au43   S11     2.360   .     S
Au43   S9      2.366   .     S
Au44   S2      2.455   .     S
