data_46-26-ch3
_audit_creation_date              2022-11-25
_audit_creation_method            'Materials Studio'
_symmetry_space_group_name_H-M    'P1'
_symmetry_Int_Tables_number       1
_symmetry_cell_setting            triclinic
loop_
_symmetry_equiv_pos_as_xyz
  x,y,z
_cell_length_a                    25.0000
_cell_length_b                    25.0000
_cell_length_c                    25.0000
_cell_angle_alpha                 90.0000
_cell_angle_beta                  90.0000
_cell_angle_gamma                 90.0000
loop_
_atom_site_label
_atom_site_type_symbol
_atom_site_fract_x
_atom_site_fract_y
_atom_site_fract_z
_atom_site_U_iso_or_equiv
_atom_site_adp_type
_atom_site_occupancy
Au1    Au    0.65765   0.52503   0.45772   0.00000  Uiso   1.00
Au2    Au    0.70391   0.39530   0.45487   0.00000  Uiso   1.00
Au3    Au    0.62742   0.39871   0.37384   0.00000  Uiso   1.00
Au4    Au    0.62000   0.31805   0.45726   0.00000  Uiso   1.00
Au5    Au    0.60025   0.42261   0.48309   0.00000  Uiso   1.00
Au6    Au    0.49323   0.42585   0.51495   0.00000  Uiso   1.00
Au7    Au    0.57680   0.46243   0.58447   0.00000  Uiso   1.00
Au8    Au    0.54623   0.52390   0.49514   0.00000  Uiso   1.00
Au9    Au    0.45445   0.50699   0.41426   0.00000  Uiso   1.00
Au10   Au    0.56967   0.50724   0.38334   0.00000  Uiso   1.00
Au11   Au    0.53078   0.59871   0.31382   0.00000  Uiso   1.00
Au12   Au    0.50824   0.61036   0.42536   0.00000  Uiso   1.00
Au13   Au    0.47129   0.59471   0.53424   0.00000  Uiso   1.00
Au14   Au    0.57871   0.63134   0.50881   0.00000  Uiso   1.00
Au15   Au    0.56880   0.72913   0.43528   0.00000  Uiso   1.00
Au16   Au    0.48616   0.69472   0.35664   0.00000  Uiso   1.00
Au17   Au    0.42322   0.60155   0.34814   0.00000  Uiso   1.00
Au18   Au    0.38077   0.58732   0.45914   0.00000  Uiso   1.00
Au19   Au    0.34041   0.49385   0.41496   0.00000  Uiso   1.00
Au20   Au    0.39959   0.48852   0.51046   0.00000  Uiso   1.00
Au21   Au    0.43147   0.44675   0.60808   0.00000  Uiso   1.00
Au22   Au    0.39499   0.37596   0.52841   0.00000  Uiso   1.00
Au23   Au    0.39730   0.23256   0.50484   0.00000  Uiso   1.00
Au24   Au    0.53526   0.19538   0.46469   0.00000  Uiso   1.00
Au25   Au    0.49748   0.31003   0.49081   0.00000  Uiso   1.00
Au26   Au    0.51131   0.41182   0.39488   0.00000  Uiso   1.00
Au27   Au    0.48826   0.48390   0.30949   0.00000  Uiso   1.00
Au28   Au    0.59712   0.48498   0.25932   0.00000  Uiso   1.00
Au29   Au    0.67429   0.51412   0.34726   0.00000  Uiso   1.00
Au30   Au    0.62388   0.60784   0.38998   0.00000  Uiso   1.00
Au31   Au    0.78343   0.44770   0.37220   0.00000  Uiso   1.00
Au32   Au    0.36278   0.44635   0.29565   0.00000  Uiso   1.00
Au33   Au    0.60354   0.33999   0.58389   0.00000  Uiso   1.00
Au34   Au    0.69840   0.44706   0.56586   0.00000  Uiso   1.00
Au35   Au    0.40220   0.52739   0.72281   0.00000  Uiso   1.00
Au36   Au    0.34120   0.65468   0.68078   0.00000  Uiso   1.00
Au37   Au    0.38329   0.56340   0.60440   0.00000  Uiso   1.00
Au38   Au    0.44679   0.65186   0.62683   0.00000  Uiso   1.00
Au39   Au    0.49162   0.54848   0.63600   0.00000  Uiso   1.00
Au40   Au    0.55927   0.70675   0.61714   0.00000  Uiso   1.00
Au41   Au    0.26718   0.55506   0.51532   0.00000  Uiso   1.00
Au42   Au    0.28218   0.59316   0.37454   0.00000  Uiso   1.00
Au43   Au    0.33647   0.68420   0.42656   0.00000  Uiso   1.00
Au44   Au    0.43524   0.69026   0.47674   0.00000  Uiso   1.00
Au45   Au    0.34450   0.65629   0.53784   0.00000  Uiso   1.00
Au46   Au    0.38067   0.77072   0.34444   0.00000  Uiso   1.00
S1     S     0.33496   0.30161   0.51821   0.00000  Uiso   1.00
S2     S     0.45294   0.15776   0.49119   0.00000  Uiso   1.00
S3     S     0.48341   0.31945   0.39697   0.00000  Uiso   1.00
S4     S     0.64462   0.70199   0.38553   0.00000  Uiso   1.00
S5     S     0.75957   0.50600   0.30227   0.00000  Uiso   1.00
S6     S     0.80039   0.39163   0.44591   0.00000  Uiso   1.00
S7     S     0.58432   0.57605   0.23612   0.00000  Uiso   1.00
S8     S     0.61234   0.39342   0.27822   0.00000  Uiso   1.00
S9     S     0.42997   0.46825   0.23343   0.00000  Uiso   1.00
S10    S     0.29729   0.42667   0.36010   0.00000  Uiso   1.00
S11    S     0.51486   0.30798   0.58482   0.00000  Uiso   1.00
S12    S     0.69427   0.35986   0.60162   0.00000  Uiso   1.00
S13    S     0.71065   0.53592   0.53750   0.00000  Uiso   1.00
S14    S     0.62180   0.22356   0.44103   0.00000  Uiso   1.00
S15    S     0.42083   0.43683   0.70371   0.00000  Uiso   1.00
S16    S     0.38183   0.61377   0.75545   0.00000  Uiso   1.00
S17    S     0.56629   0.49990   0.67311   0.00000  Uiso   1.00
S18    S     0.47940   0.73839   0.65585   0.00000  Uiso   1.00
S19    S     0.63587   0.67179   0.57602   0.00000  Uiso   1.00
S20    S     0.29844   0.51466   0.59460   0.00000  Uiso   1.00
S21    S     0.21642   0.58625   0.44204   0.00000  Uiso   1.00
S22    S     0.29617   0.69852   0.61033   0.00000  Uiso   1.00
S23    S     0.50154   0.75843   0.49500   0.00000  Uiso   1.00
S24    S     0.29389   0.75758   0.37879   0.00000  Uiso   1.00
S25    S     0.46874   0.77913   0.31233   0.00000  Uiso   1.00
S26    S     0.34049   0.58688   0.30027   0.00000  Uiso   1.00
loop_
_geom_bond_atom_site_label_1
_geom_bond_atom_site_label_2
_geom_bond_distance
_geom_bond_site_symmetry_2
_ccdc_geom_bond_type
Au1    S13     2.410   .     S
Au2    Au5     2.771   .     S
Au2    S6      2.424   .     S
Au3    S8      2.424   .     S
Au4    S14     2.397   .     S
Au4    Au5     2.738   .     S
Au6    Au22    2.775   .     S
Au7    S17     2.420   .     S
Au8    Au13    2.757   .     S
Au10   Au29    2.772   .     S
Au11   S7      2.426   .     S
Au12   Au16    2.776   .     S
Au12   Au14    2.781   .     S
Au14   S19     2.426   .     S
Au15   S4      2.366   .     S
Au15   S23     2.365   .     S
Au16   S25     2.423   .     S
Au17   S26     2.418   .     S
Au18   Au45    2.769   .     S
Au18   Au19    2.775   .     S
Au19   S10     2.422   .     S
Au20   Au21    2.772   .     S
Au21   S15     2.418   .     S
Au22   S1      2.403   .     S
Au23   S1      2.350   .     S
Au23   S2      2.355   .     S
Au24   S2      2.358   .     S
Au24   S14     2.351   .     S
Au25   S3      2.384   .     S
Au25   S11     2.391   .     S
Au26   S3      2.413   .     S
Au27   S9      2.427   .     S
Au28   S7      2.371   .     S
Au28   S8      2.368   .     S
Au29   S5      2.419   .     S
Au30   S4      2.413   .     S
Au31   S6      2.354   .     S
Au31   S5      2.353   .     S
Au32   S9      2.354   .     S
Au32   S10     2.349   .     S
Au33   S12     2.364   .     S
Au33   S11     2.357   .     S
Au34   S12     2.359   .     S
Au34   S13     2.352   .     S
Au35   S15     2.360   .     S
Au35   S16     2.364   .     S
Au36   S16     2.358   .     S
Au36   S22     2.360   .     S
Au37   Au38    2.779   .     S
Au37   S20     2.459   .     S
Au38   S18     2.423   .     S
Au39   S17     2.413   .     S
Au40   S18     2.356   .     S
Au40   S19     2.343   .     S
Au41   S21     2.361   .     S
Au41   S20     2.358   .     S
Au42   S26     2.366   .     S
Au42   S21     2.362   .     S
Au43   S24     2.434   .     S
Au43   Au44    2.774   .     S
Au44   S23     2.421   .     S
Au45   S22     2.420   .     S
Au46   S24     2.356   .     S
Au46   S25     2.353   .     S
