data_48-26-ch3
_audit_creation_date              2022-11-25
_audit_creation_method            'Materials Studio'
_symmetry_space_group_name_H-M    'P1'
_symmetry_Int_Tables_number       1
_symmetry_cell_setting            triclinic
loop_
_symmetry_equiv_pos_as_xyz
  x,y,z
_cell_length_a                    20.0000
_cell_length_b                    20.0000
_cell_length_c                    20.0000
_cell_angle_alpha                 90.0000
_cell_angle_beta                  90.0000
_cell_angle_gamma                 90.0000
loop_
_atom_site_label
_atom_site_type_symbol
_atom_site_fract_x
_atom_site_fract_y
_atom_site_fract_z
_atom_site_U_iso_or_equiv
_atom_site_adp_type
_atom_site_occupancy
S1     S     0.71024   0.29492   0.39835   0.00000  Uiso   1.00
S2     S     0.56890   0.66366   0.73729   0.00000  Uiso   1.00
S3     S     0.28701   0.27628   0.46284   0.00000  Uiso   1.00
S4     S     0.53826   0.80243   0.57818   0.00000  Uiso   1.00
S5     S     0.65566   0.47976   0.88335   0.00000  Uiso   1.00
S6     S     0.50267   0.24454   0.77233   0.00000  Uiso   1.00
S7     S     0.45518   0.28471   0.35091   0.00000  Uiso   1.00
S8     S     0.58138   0.78633   0.35346   0.00000  Uiso   1.00
S9     S     0.41686   0.45877   0.15680   0.00000  Uiso   1.00
S10    S     0.32086   0.70876   0.22232   0.00000  Uiso   1.00
S11    S     0.27027   0.51397   0.33095   0.00000  Uiso   1.00
S12    S     0.41132   0.12336   0.59202   0.00000  Uiso   1.00
S13    S     0.18300   0.74333   0.41044   0.00000  Uiso   1.00
S14    S     0.74481   0.33994   0.62718   0.00000  Uiso   1.00
S15    S     0.76010   0.67947   0.24245   0.00000  Uiso   1.00
S16    S     0.33577   0.35785   0.66981   0.00000  Uiso   1.00
S17    S     0.58488   0.61598   0.09873   0.00000  Uiso   1.00
S18    S     0.18460   0.54041   0.52886   0.00000  Uiso   1.00
S19    S     0.38955   0.85508   0.40422   0.00000  Uiso   1.00
S20    S     0.42403   0.50334   0.83129   0.00000  Uiso   1.00
S21    S     0.63949   0.16779   0.58258   0.00000  Uiso   1.00
S22    S     0.76283   0.71333   0.48641   0.00000  Uiso   1.00
S23    S     0.33559   0.65628   0.64244   0.00000  Uiso   1.00
S24    S     0.82402   0.53340   0.72755   0.00000  Uiso   1.00
S25    S     0.83312   0.48363   0.46210   0.00000  Uiso   1.00
S26    S     0.63286   0.41824   0.24131   0.00000  Uiso   1.00
Au1    Au    0.60205   0.59836   0.43052   0.00000  Uiso   1.00
Au2    Au    0.64239   0.49568   0.54735   0.00000  Uiso   1.00
Au3    Au    0.52399   0.47858   0.66313   0.00000  Uiso   1.00
Au4    Au    0.70179   0.62463   0.54174   0.00000  Uiso   1.00
Au5    Au    0.72763   0.53061   0.42674   0.00000  Uiso   1.00
Au6    Au    0.73982   0.52803   0.64068   0.00000  Uiso   1.00
Au7    Au    0.54753   0.46397   0.43816   0.00000  Uiso   1.00
Au8    Au    0.48863   0.54104   0.32467   0.00000  Uiso   1.00
Au9    Au    0.55406   0.38327   0.55179   0.00000  Uiso   1.00
Au10   Au    0.51723   0.56794   0.54617   0.00000  Uiso   1.00
Au11   Au    0.66640   0.39015   0.45961   0.00000  Uiso   1.00
Au12   Au    0.69239   0.63095   0.33014   0.00000  Uiso   1.00
Au13   Au    0.46241   0.63590   0.43847   0.00000  Uiso   1.00
Au14   Au    0.42443   0.46127   0.56502   0.00000  Uiso   1.00
Au15   Au    0.40927   0.49462   0.43052   0.00000  Uiso   1.00
Au16   Au    0.56525   0.69916   0.51937   0.00000  Uiso   1.00
Au17   Au    0.67056   0.74830   0.42100   0.00000  Uiso   1.00
Au18   Au    0.78735   0.41837   0.54955   0.00000  Uiso   1.00
Au19   Au    0.53826   0.67789   0.31950   0.00000  Uiso   1.00
Au20   Au    0.61670   0.59636   0.64924   0.00000  Uiso   1.00
Au21   Au    0.64752   0.40127   0.66468   0.00000  Uiso   1.00
Au22   Au    0.63282   0.50352   0.32644   0.00000  Uiso   1.00
Au23   Au    0.42337   0.57382   0.65036   0.00000  Uiso   1.00
Au24   Au    0.32419   0.60703   0.38999   0.00000  Uiso   1.00
Au25   Au    0.52491   0.35059   0.71801   0.00000  Uiso   1.00
Au26   Au    0.34705   0.65118   0.52235   0.00000  Uiso   1.00
Au27   Au    0.43244   0.31838   0.60411   0.00000  Uiso   1.00
Au28   Au    0.54784   0.24630   0.57763   0.00000  Uiso   1.00
Au29   Au    0.29914   0.50683   0.51448   0.00000  Uiso   1.00
Au30   Au    0.59525   0.45746   0.78096   0.00000  Uiso   1.00
Au31   Au    0.52946   0.59807   0.20497   0.00000  Uiso   1.00
Au32   Au    0.67457   0.64876   0.16781   0.00000  Uiso   1.00
Au33   Au    0.67671   0.22857   0.48883   0.00000  Uiso   1.00
Au34   Au    0.40920   0.64101   0.26961   0.00000  Uiso   1.00
Au35   Au    0.36965   0.73578   0.41105   0.00000  Uiso   1.00
Au36   Au    0.34782   0.37786   0.48523   0.00000  Uiso   1.00
Au37   Au    0.47509   0.29830   0.46889   0.00000  Uiso   1.00
Au38   Au    0.46755   0.40443   0.33832   0.00000  Uiso   1.00
Au39   Au    0.49953   0.57844   0.78003   0.00000  Uiso   1.00
Au40   Au    0.74183   0.50748   0.80757   0.00000  Uiso   1.00
Au41   Au    0.46367   0.82980   0.49220   0.00000  Uiso   1.00
Au42   Au    0.52430   0.44401   0.20345   0.00000  Uiso   1.00
Au43   Au    0.19423   0.64196   0.47009   0.00000  Uiso   1.00
Au44   Au    0.25523   0.72608   0.31861   0.00000  Uiso   1.00
Au45   Au    0.39073   0.43325   0.74190   0.00000  Uiso   1.00
Au46   Au    0.35416   0.49221   0.25136   0.00000  Uiso   1.00
Au47   Au    0.45816   0.18679   0.67976   0.00000  Uiso   1.00
Au48   Au    0.35409   0.20635   0.53020   0.00000  Uiso   1.00
loop_
_geom_bond_atom_site_label_1
_geom_bond_atom_site_label_2
_geom_bond_distance
_geom_bond_site_symmetry_2
_ccdc_geom_bond_type
S1     Au11    2.429   .     S
S1     Au33    2.342   .     S
S2     Au20    2.414   .     S
S2     Au39    2.358   .     S
S3     Au36    2.410   .     S
S3     Au48    2.360   .     S
S4     Au41    2.341   .     S
S4     Au16    2.437   .     S
S5     Au40    2.361   .     S
S5     Au30    2.419   .     S
S6     Au25    2.424   .     S
S6     Au47    2.357   .     S
S7     Au37    2.409   .     S
S7     Au38    2.420   .     S
S8     Au17    2.363   .     S
S8     Au19    2.431   .     S
S9     Au46    2.366   .     S
S9     Au42    2.361   .     S
S10    Au44    2.356   .     S
S10    Au34    2.419   .     S
S11    Au46    2.353   .     S
S11    Au24    2.454   .     S
S12    Au48    2.365   .     S
S12    Au47    2.359   .     S
S13    Au44    2.362   .     S
S13    Au43    2.363   .     S
S14    Au21    2.419   .     S
S14    Au18    2.365   .     S
S15    Au12    2.419   .     S
S15    Au32    2.352   .     S
S16    Au45    2.358   .     S
S16    Au27    2.467   .     S
S17    Au32    2.357   .     S
S17    Au31    2.423   .     S
S18    Au29    2.404   .     S
S18    Au43    2.354   .     S
S19    Au35    2.423   .     S
S19    Au41    2.356   .     S
S20    Au39    2.364   .     S
S20    Au45    2.368   .     S
S21    Au33    2.355   .     S
S21    Au28    2.416   .     S
S22    Au4     2.421   .     S
S22    Au17    2.368   .     S
S23    Au23    2.414   .     S
S23    Au26    2.415   .     S
S24    Au6     2.422   .     S
S24    Au40    2.352   .     S
S25    Au5     2.415   .     S
S25    Au18    2.366   .     S
S26    Au42    2.357   .     S
S26    Au22    2.410   .     S
Au1    Au12    2.778   .     S
Au2    Au6     2.775   .     S
Au8    Au34    2.781   .     S
Au8    Au31    2.775   .     S
Au8    Au38    2.778   .     S
Au10   Au13    2.773   .     S
Au13   Au35    2.781   .     S
Au14   Au36    2.771   .     S
Au15   Au29    2.780   .     S
Au24   Au35    2.763   .     S
Au27   Au28    2.772   .     S
