data_49-27-ch3
_audit_creation_date              2022-11-25
_audit_creation_method            'Materials Studio'
_symmetry_space_group_name_H-M    'P1'
_symmetry_Int_Tables_number       1
_symmetry_cell_setting            triclinic
loop_
_symmetry_equiv_pos_as_xyz
  x,y,z
_cell_length_a                    25.0000
_cell_length_b                    25.0000
_cell_length_c                    25.0000
_cell_angle_alpha                 90.0000
_cell_angle_beta                  90.0000
_cell_angle_gamma                 90.0000
loop_
_atom_site_label
_atom_site_type_symbol
_atom_site_fract_x
_atom_site_fract_y
_atom_site_fract_z
_atom_site_U_iso_or_equiv
_atom_site_adp_type
_atom_site_occupancy
Au1    Au    0.43389  -0.53775   0.50015   0.00000  Uiso   1.00
Au2    Au    0.45940  -0.56289   0.31029   0.00000  Uiso   1.00
S1     S     0.41037  -0.61552   0.24591   0.00000  Uiso   1.00
Au3    Au    0.39536  -0.45884   0.41603   0.00000  Uiso   1.00
Au4    Au    0.41707  -0.38298   0.49639   0.00000  Uiso   1.00
Au5    Au    0.33095  -0.50908   0.34079   0.00000  Uiso   1.00
Au6    Au    0.49826  -0.62883   0.40676   0.00000  Uiso   1.00
Au7    Au    0.41749  -0.65544   0.48168   0.00000  Uiso   1.00
Au8    Au    0.57543  -0.64844   0.32866   0.00000  Uiso   1.00
Au9    Au    0.49317  -0.38885   0.41497   0.00000  Uiso   1.00
Au10   Au    0.58950  -0.34859   0.45475   0.00000  Uiso   1.00
Au11   Au    0.39357  -0.34631   0.39224   0.00000  Uiso   1.00
Au12   Au    0.57696  -0.37560   0.34332   0.00000  Uiso   1.00
Au13   Au    0.38804  -0.58108   0.40374   0.00000  Uiso   1.00
S2     S     0.44879  -0.71999   0.54582   0.00000  Uiso   1.00
S3     S     0.62969  -0.35192   0.26490   0.00000  Uiso   1.00
Au14   Au    0.59554  -0.45530   0.41939   0.00000  Uiso   1.00
Au15   Au    0.51171  -0.45753   0.50635   0.00000  Uiso   1.00
Au16   Au    0.46836  -0.44957   0.31560   0.00000  Uiso   1.00
S4     S     0.44027  -0.37871   0.25640   0.00000  Uiso   1.00
Au17   Au    0.65341  -0.52046   0.49090   0.00000  Uiso   1.00
S5     S     0.31182  -0.30900   0.35693   0.00000  Uiso   1.00
S6     S     0.35027  -0.38398   0.56530   0.00000  Uiso   1.00
Au18   Au    0.60879  -0.57393   0.40400   0.00000  Uiso   1.00
S7     S     0.68860  -0.47663   0.56934   0.00000  Uiso   1.00
Au19   Au    0.69378  -0.50506   0.38661   0.00000  Uiso   1.00
S8     S     0.76455  -0.44936   0.35224   0.00000  Uiso   1.00
Au20   Au    0.59492  -0.67875   0.43828   0.00000  Uiso   1.00
S9     S     0.56620  -0.69745   0.24528   0.00000  Uiso   1.00
S10    S     0.28582  -0.47027   0.26417   0.00000  Uiso   1.00
Au21   Au    0.54266  -0.56562   0.49780   0.00000  Uiso   1.00
Au22   Au    0.56202  -0.51351   0.31352   0.00000  Uiso   1.00
S11    S     0.63632  -0.52002   0.25212   0.00000  Uiso   1.00
Au23   Au    0.30794  -0.52072   0.45276   0.00000  Uiso   1.00
Au24   Au    0.40524  -0.68706   0.37424   0.00000  Uiso   1.00
S12    S     0.41525  -0.77158   0.32901   0.00000  Uiso   1.00
Au25   Au    0.49109  -0.73550   0.28710   0.00000  Uiso   1.00
Au26   Au    0.29801  -0.38938   0.31052   0.00000  Uiso   1.00
Au27   Au    0.69797  -0.39916   0.30902   0.00000  Uiso   1.00
Au28   Au    0.67774  -0.58988   0.30082   0.00000  Uiso   1.00
S13    S     0.72458  -0.66112   0.34170   0.00000  Uiso   1.00
Au29   Au    0.71558  -0.64387   0.43433   0.00000  Uiso   1.00
S14    S     0.72258  -0.63713   0.52825   0.00000  Uiso   1.00
Au30   Au    0.47785  -0.31202   0.31202   0.00000  Uiso   1.00
S15    S     0.51279  -0.23955   0.36151   0.00000  Uiso   1.00
Au31   Au    0.49411  -0.26381   0.45096   0.00000  Uiso   1.00
S16    S     0.47665  -0.26898   0.54366   0.00000  Uiso   1.00
Au32   Au    0.33329  -0.62280   0.30044   0.00000  Uiso   1.00
S17    S     0.25187  -0.63420   0.34726   0.00000  Uiso   1.00
Au33   Au    0.27640  -0.64134   0.43830   0.00000  Uiso   1.00
S18    S     0.28521  -0.65917   0.53061   0.00000  Uiso   1.00
Au34   Au    0.49589  -0.51320   0.40497   0.00000  Uiso   1.00
Au35   Au    0.34371  -0.58421   0.54940   0.00000  Uiso   1.00
Au36   Au    0.51815  -0.65255   0.56212   0.00000  Uiso   1.00
Au37   Au    0.62718  -0.62754   0.54238   0.00000  Uiso   1.00
Au38   Au    0.37778  -0.47739   0.57511   0.00000  Uiso   1.00
Au39   Au    0.43786  -0.56748   0.61049   0.00000  Uiso   1.00
Au40   Au    0.53019  -0.66764   0.67763   0.00000  Uiso   1.00
Au41   Au    0.59827  -0.74393   0.56916   0.00000  Uiso   1.00
Au42   Au    0.60118  -0.43203   0.56692   0.00000  Uiso   1.00
Au43   Au    0.49567  -0.44706   0.61693   0.00000  Uiso   1.00
Au44   Au    0.52074  -0.35492   0.55480   0.00000  Uiso   1.00
Au45   Au    0.56559  -0.55762   0.60773   0.00000  Uiso   1.00
S19    S     0.46706  -0.60089   0.69762   0.00000  Uiso   1.00
S20    S     0.59931  -0.73051   0.66319   0.00000  Uiso   1.00
S21    S     0.60753  -0.76626   0.47773   0.00000  Uiso   1.00
Au46   Au    0.36999  -0.48374   0.69219   0.00000  Uiso   1.00
Au47   Au    0.26069  -0.50307   0.59138   0.00000  Uiso   1.00
S22    S     0.46008  -0.46020   0.70628   0.00000  Uiso   1.00
S23    S     0.28069  -0.51417   0.68361   0.00000  Uiso   1.00
S24    S     0.22881  -0.49542   0.50260   0.00000  Uiso   1.00
Au48   Au    0.60623  -0.43233   0.68522   0.00000  Uiso   1.00
Au49   Au    0.63373  -0.31825   0.59150   0.00000  Uiso   1.00
S25    S     0.59210  -0.52512   0.69526   0.00000  Uiso   1.00
S26    S     0.62257  -0.33896   0.68344   0.00000  Uiso   1.00
S27    S     0.64123  -0.28351   0.50387   0.00000  Uiso   1.00
loop_
_geom_bond_atom_site_label_1
_geom_bond_atom_site_label_2
_geom_bond_distance
_geom_bond_site_symmetry_2
_ccdc_geom_bond_type
Au2    S1      2.413   .     S
S1     Au32    2.367   .     S
Au3    Au5     2.776   .     S
Au4    S6      2.400   .     S
Au5    S10     2.426   .     S
Au7    S2      2.406   .     S
Au8    S9      2.429   .     S
Au8    Au18    2.777   .     S
Au9    Au11    2.767   .     S
Au9    Au12    2.776   .     S
Au10   S27     2.414   .     S
Au11   S5      2.414   .     S
Au12   S3      2.436   .     S
S2     Au36    2.453   .     S
S3     Au27    2.351   .     S
Au15   Au42    2.775   .     S
Au16   S4      2.413   .     S
S4     Au30    2.366   .     S
Au17   S7      2.412   .     S
S5     Au26    2.346   .     S
S6     Au38    2.447   .     S
Au18   Au19    2.769   .     S
Au18   Au20    2.779   .     S
S7     Au42    2.454   .     S
Au19   S8      2.410   .     S
S8     Au27    2.348   .     S
Au20   S21     2.420   .     S
S9     Au25    2.350   .     S
S10    Au26    2.350   .     S
Au21   Au36    2.772   .     S
Au22   S11     2.415   .     S
S11    Au28    2.367   .     S
Au23   S24     2.422   .     S
Au24   S12     2.410   .     S
S12    Au25    2.347   .     S
Au28   S13     2.364   .     S
S13    Au29    2.366   .     S
Au29   S14     2.361   .     S
S14    Au37    2.423   .     S
Au30   S15     2.361   .     S
S15    Au31    2.364   .     S
Au31   S16     2.362   .     S
S16    Au44    2.431   .     S
Au32   S17     2.365   .     S
S17    Au33    2.364   .     S
Au33   S18     2.361   .     S
S18    Au35    2.423   .     S
Au39   S19     2.444   .     S
Au40   S20     2.364   .     S
Au40   S19     2.351   .     S
Au41   S21     2.364   .     S
Au41   S20     2.375   .     S
Au43   S22     2.427   .     S
Au45   S25     2.426   .     S
Au46   S22     2.354   .     S
Au46   S23     2.368   .     S
Au47   S24     2.366   .     S
Au47   S23     2.376   .     S
Au48   S26     2.370   .     S
Au48   S25     2.360   .     S
Au49   S27     2.364   .     S
Au49   S26     2.372   .     S
