data_4e-17-13
_audit_creation_date              2023-04-12
_audit_creation_method            'Materials Studio'
_symmetry_space_group_name_H-M    'P1'
_symmetry_Int_Tables_number       1
_symmetry_cell_setting            triclinic
loop_
_symmetry_equiv_pos_as_xyz
  x,y,z
_cell_length_a                    20.0000
_cell_length_b                    20.0000
_cell_length_c                    20.0000
_cell_angle_alpha                 90.0000
_cell_angle_beta                  90.0000
_cell_angle_gamma                 90.0000
loop_
_atom_site_label
_atom_site_type_symbol
_atom_site_fract_x
_atom_site_fract_y
_atom_site_fract_z
_atom_site_U_iso_or_equiv
_atom_site_adp_type
_atom_site_occupancy
Au1    Au    2.41063   1.44455   0.40463   0.00000  Uiso   1.00
Au2    Au    2.60449   1.39500   0.37970   0.00000  Uiso   1.00
Au3    Au    2.37748   1.66899   0.52049   0.00000  Uiso   1.00
Au4    Au    2.37189   1.47600   0.63044   0.00000  Uiso   1.00
Au5    Au    2.59322   1.66904   0.38088   0.00000  Uiso   1.00
Au6    Au    2.59001   1.39271   0.65431   0.00000  Uiso   1.00
Au7    Au    2.29612   1.55726   0.41340   0.00000  Uiso   1.00
Au8    Au    2.46165   1.30191   0.35995   0.00000  Uiso   1.00
Au9    Au    2.53462   1.54047   0.62782   0.00000  Uiso   1.00
Au10   Au    2.67258   1.54073   0.66648   0.00000  Uiso   1.00
Au11   Au    2.52989   1.51299   0.40648   0.00000  Uiso   1.00
Au12   Au    2.54322   1.62007   0.52570   0.00000  Uiso   1.00
Au13   Au    2.67675   1.68354   0.52939   0.00000  Uiso   1.00
Au14   Au    2.51225   1.41133   0.49717   0.00000  Uiso   1.00
Au15   Au    2.34058   1.34569   0.48984   0.00000  Uiso   1.00
Au16   Au    2.61911   1.50528   0.52988   0.00000  Uiso   1.00
Au17   Au    2.43655   1.53331   0.51073   0.00000  Uiso   1.00
S1     S     2.45088   1.52372   0.71257   0.00000  Uiso   1.00
S2     S     2.63155   1.45901   0.74114   0.00000  Uiso   1.00
S3     S     2.68377   1.43074   0.45456   0.00000  Uiso   1.00
S4     S     2.47748   1.72061   0.53727   0.00000  Uiso   1.00
S5     S     2.63590   1.75633   0.44584   0.00000  Uiso   1.00
S6     S     2.37527   1.25461   0.42318   0.00000  Uiso   1.00
S7     S     2.31856   1.47591   0.33152   0.00000  Uiso   1.00
S8     S     2.54720   1.34505   0.29296   0.00000  Uiso   1.00
S9     S     2.26706   1.63024   0.49917   0.00000  Uiso   1.00
S10    S     2.29074   1.42844   0.55745   0.00000  Uiso   1.00
S11    S     2.73695   1.62005   0.60771   0.00000  Uiso   1.00
S12    S     2.55397   1.58408   0.31291   0.00000  Uiso   1.00
S13    S     2.54785   1.32242   0.57223   0.00000  Uiso   1.00
loop_
_geom_bond_atom_site_label_1
_geom_bond_atom_site_label_2
_geom_bond_distance
_geom_bond_site_symmetry_2
_ccdc_geom_bond_type
Au1    S7      2.434   .     S
Au1    Au11    2.750   .     S
Au2    S3      2.295   .     S
Au2    S8      2.307   .     S
Au3    S4      2.276   .     S
Au3    S9      2.379   .     S
Au4    S1      2.471   .     S
Au4    S10     2.381   .     S
Au5    S5      2.338   .     S
Au5    S12     2.313   .     S
Au6    S13     2.320   .     S
Au6    S2      2.338   .     S
Au7    S7      2.352   .     S
Au7    S9      2.326   .     S
Au8    S6      2.341   .     S
Au8    S8      2.338   .     S
Au9    S1      2.406   .     S
Au9    Au12    2.595   .     S
Au9    Au16    2.681   .     S
Au10   S11     2.357   .     S
Au10   S2      2.361   .     S
Au11   S12     2.399   .     S
Au11   Au14    2.747   .     S
Au12   Au17    2.766   .     S
Au12   S4      2.413   .     S
Au12   Au16    2.754   .     S
Au13   S5      2.362   .     S
Au13   S11     2.349   .     S
Au14   S13     2.434   .     S
Au15   S10     2.358   .     S
Au15   S6      2.361   .     S
Au16   S3      2.483   .     S
