data_56-34-ch3
_audit_creation_date              2022-11-25
_audit_creation_method            'Materials Studio'
_symmetry_space_group_name_H-M    'P1'
_symmetry_Int_Tables_number       1
_symmetry_cell_setting            triclinic
loop_
_symmetry_equiv_pos_as_xyz
  x,y,z
_cell_length_a                    25.0000
_cell_length_b                    25.0000
_cell_length_c                    25.0000
_cell_angle_alpha                 90.0000
_cell_angle_beta                  90.0000
_cell_angle_gamma                 90.0000
loop_
_atom_site_label
_atom_site_type_symbol
_atom_site_fract_x
_atom_site_fract_y
_atom_site_fract_z
_atom_site_U_iso_or_equiv
_atom_site_adp_type
_atom_site_occupancy
S1     S     0.43256  -0.48003   0.74161   0.00000  Uiso   1.00
S2     S     0.56485  -0.72468   0.81868   0.00000  Uiso   1.00
S3     S     0.72526  -0.20101   0.34429   0.00000  Uiso   1.00
S4     S     0.57588  -0.31819   0.19760   0.00000  Uiso   1.00
S5     S     0.51039  -0.77932   0.66238   0.00000  Uiso   1.00
S6     S     0.65415  -0.24196   0.51273   0.00000  Uiso   1.00
S7     S     0.39294  -0.64923   0.82489   0.00000  Uiso   1.00
S8     S     0.48047  -0.16938   0.55157   0.00000  Uiso   1.00
S9     S     0.59365  -0.76891   0.49424   0.00000  Uiso   1.00
S10    S     0.63949  -0.66674   0.65674   0.00000  Uiso   1.00
S11    S     0.31631  -0.74045   0.66264   0.00000  Uiso   1.00
S12    S     0.57313  -0.52216   0.71428   0.00000  Uiso   1.00
S13    S     0.66448  -0.54261   0.54983   0.00000  Uiso   1.00
S14    S     0.70067  -0.38909   0.45019   0.00000  Uiso   1.00
S15    S     0.26752  -0.56729   0.71692   0.00000  Uiso   1.00
S16    S     0.25622  -0.50408   0.48270   0.00000  Uiso   1.00
S17    S     0.41586  -0.24693   0.38064   0.00000  Uiso   1.00
S18    S     0.55801  -0.16118   0.38064   0.00000  Uiso   1.00
S19    S     0.32135  -0.66335   0.40412   0.00000  Uiso   1.00
S20    S     0.35501  -0.51343   0.30808   0.00000  Uiso   1.00
S21    S     0.39177  -0.33822   0.22946   0.00000  Uiso   1.00
S22    S     0.26724  -0.36003   0.37285   0.00000  Uiso   1.00
S23    S     0.32955  -0.28125   0.54623   0.00000  Uiso   1.00
S24    S     0.30014  -0.42359   0.60680   0.00000  Uiso   1.00
S25    S     0.60681  -0.36985   0.61315   0.00000  Uiso   1.00
S26    S     0.22718  -0.65255   0.54611   0.00000  Uiso   1.00
S27    S     0.25087  -0.83827   0.53669   0.00000  Uiso   1.00
S28    S     0.43220  -0.85931   0.49214   0.00000  Uiso   1.00
S29    S     0.71753  -0.34101   0.22061   0.00000  Uiso   1.00
S30    S     0.46101  -0.70374   0.37751   0.00000  Uiso   1.00
S31    S     0.50122  -0.54574   0.28802   0.00000  Uiso   1.00
S32    S     0.62436  -0.60726   0.41820   0.00000  Uiso   1.00
S33    S     0.65170  -0.48310   0.32328   0.00000  Uiso   1.00
S34    S     0.46220  -0.33487   0.64864   0.00000  Uiso   1.00
Au1    Au    0.49568  -0.51041   0.45007   0.00000  Uiso   1.00
Au2    Au    0.58769  -0.45958   0.39481   0.00000  Uiso   1.00
Au3    Au    0.53600  -0.39752   0.47547   0.00000  Uiso   1.00
Au4    Au    0.40270  -0.56195   0.50698   0.00000  Uiso   1.00
Au5    Au    0.44107  -0.44808   0.53468   0.00000  Uiso   1.00
Au6    Au    0.43024  -0.40959   0.42135   0.00000  Uiso   1.00
Au7    Au    0.39326  -0.53148   0.39718   0.00000  Uiso   1.00
Au8    Au    0.59739  -0.48953   0.50236   0.00000  Uiso   1.00
Au9    Au    0.55817  -0.61763   0.48889   0.00000  Uiso   1.00
Au10   Au    0.48291  -0.46469   0.33792   0.00000  Uiso   1.00
Au11   Au    0.50504  -0.54676   0.56603   0.00000  Uiso   1.00
Au12   Au    0.46274  -0.61507   0.42028   0.00000  Uiso   1.00
Au13   Au    0.54183  -0.44042   0.59244   0.00000  Uiso   1.00
Au14   Au    0.56075  -0.57557   0.35571   0.00000  Uiso   1.00
Au15   Au    0.46911  -0.66002   0.54113   0.00000  Uiso   1.00
Au16   Au    0.34082  -0.45638   0.47121   0.00000  Uiso   1.00
Au17   Au    0.51975  -0.35988   0.36524   0.00000  Uiso   1.00
Au18   Au    0.41861  -0.37616   0.31516   0.00000  Uiso   1.00
Au19   Au    0.34675  -0.50874   0.59493   0.00000  Uiso   1.00
Au20   Au    0.56534  -0.64328   0.59772   0.00000  Uiso   1.00
Au21   Au    0.45096  -0.47925   0.64419   0.00000  Uiso   1.00
Au22   Au    0.29139  -0.58268   0.44390   0.00000  Uiso   1.00
Au23   Au    0.48438  -0.32877   0.55378   0.00000  Uiso   1.00
Au24   Au    0.37628  -0.35464   0.50112   0.00000  Uiso   1.00
Au25   Au    0.31551  -0.43598   0.34348   0.00000  Uiso   1.00
Au26   Au    0.37290  -0.68070   0.48419   0.00000  Uiso   1.00
Au27   Au    0.46879  -0.29095   0.45044   0.00000  Uiso   1.00
Au28   Au    0.31371  -0.61226   0.56686   0.00000  Uiso   1.00
Au29   Au    0.40957  -0.59713   0.62382   0.00000  Uiso   1.00
Au30   Au    0.65108  -0.37988   0.53026   0.00000  Uiso   1.00
Au31   Au    0.52563  -0.73355   0.43897   0.00000  Uiso   1.00
Au32   Au    0.44085  -0.76534   0.51587   0.00000  Uiso   1.00
Au33   Au    0.34517  -0.30815   0.38201   0.00000  Uiso   1.00
Au34   Au    0.61762  -0.53116   0.63114   0.00000  Uiso   1.00
Au35   Au    0.63310  -0.34706   0.39423   0.00000  Uiso   1.00
Au36   Au    0.38197  -0.38022   0.62662   0.00000  Uiso   1.00
Au37   Au    0.57086  -0.28817   0.49459   0.00000  Uiso   1.00
Au38   Au    0.59697  -0.32328   0.29191   0.00000  Uiso   1.00
Au39   Au    0.57085  -0.25719   0.37771   0.00000  Uiso   1.00
Au40   Au    0.48402  -0.32767   0.21405   0.00000  Uiso   1.00
Au41   Au    0.50521  -0.58526   0.68612   0.00000  Uiso   1.00
Au42   Au    0.37817  -0.71237   0.59242   0.00000  Uiso   1.00
Au43   Au    0.68254  -0.40835   0.27667   0.00000  Uiso   1.00
Au44   Au    0.29955  -0.65117   0.68753   0.00000  Uiso   1.00
Au45   Au    0.35155  -0.52482   0.72513   0.00000  Uiso   1.00
Au46   Au    0.41039  -0.62780   0.73125   0.00000  Uiso   1.00
Au47   Au    0.40639  -0.22721   0.54282   0.00000  Uiso   1.00
Au48   Au    0.47209  -0.68955   0.66102   0.00000  Uiso   1.00
Au49   Au    0.24317  -0.74493   0.54665   0.00000  Uiso   1.00
Au50   Au    0.54614  -0.76831   0.57586   0.00000  Uiso   1.00
Au51   Au    0.51532  -0.16930   0.46404   0.00000  Uiso   1.00
Au52   Au    0.34191  -0.84707   0.51588   0.00000  Uiso   1.00
Au53   Au    0.68127  -0.22331   0.42452   0.00000  Uiso   1.00
Au54   Au    0.59668  -0.69829   0.73399   0.00000  Uiso   1.00
Au55   Au    0.71418  -0.27341   0.28584   0.00000  Uiso   1.00
Au56   Au    0.47898  -0.68718   0.81989   0.00000  Uiso   1.00
loop_
_geom_bond_atom_site_label_1
_geom_bond_atom_site_label_2
_geom_bond_distance
_geom_bond_site_symmetry_2
_ccdc_geom_bond_type
S1     Au21    2.479   .     S
S1     Au45    2.351   .     S
S2     Au56    2.343   .     S
S2     Au54    2.356   .     S
S3     Au55    2.342   .     S
S3     Au53    2.354   .     S
S4     Au40    2.345   .     S
S4     Au38    2.419   .     S
S5     Au48    2.440   .     S
S5     Au50    2.357   .     S
S6     Au53    2.354   .     S
S6     Au37    2.424   .     S
S7     Au46    2.441   .     S
S7     Au56    2.354   .     S
S8     Au47    2.360   .     S
S8     Au51    2.355   .     S
S9     Au31    2.363   .     S
S9     Au50    2.361   .     S
S10    Au20    2.441   .     S
S10    Au54    2.345   .     S
S11    Au44    2.355   .     S
S11    Au42    2.443   .     S
S12    Au41    2.422   .     S
S12    Au34    2.368   .     S
S13    Au8     2.446   .     S
S13    Au34    2.364   .     S
S14    Au35    2.432   .     S
S14    Au30    2.366   .     S
S15    Au45    2.363   .     S
S15    Au44    2.362   .     S
S16    Au22    2.361   .     S
S16    Au16    2.445   .     S
S17    Au33    2.338   .     S
S17    Au27    2.451   .     S
S18    Au39    2.423   .     S
S18    Au51    2.351   .     S
S19    Au26    2.420   .     S
S19    Au22    2.370   .     S
S20    Au25    2.347   .     S
S20    Au7     2.466   .     S
S21    Au40    2.353   .     S
S21    Au18    2.437   .     S
S22    Au33    2.352   .     S
S22    Au25    2.367   .     S
S23    Au47    2.350   .     S
S23    Au24    2.450   .     S
S24    Au19    2.445   .     S
S24    Au36    2.368   .     S
S25    Au30    2.363   .     S
S25    Au13    2.454   .     S
S26    Au28    2.442   .     S
S26    Au49    2.344   .     S
S27    Au52    2.345   .     S
S27    Au49    2.355   .     S
S28    Au32    2.433   .     S
S28    Au52    2.354   .     S
S29    Au43    2.359   .     S
S29    Au55    2.350   .     S
S30    Au12    2.462   .     S
S30    Au31    2.351   .     S
S31    Au14    2.374   .     S
S31    Au10    2.423   .     S
S32    Au9     2.435   .     S
S32    Au14    2.366   .     S
S33    Au43    2.333   .     S
S33    Au2     2.471   .     S
S34    Au36    2.369   .     S
S34    Au23    2.440   .     S
Au6    Au24    2.772   .     S
Au7    Au12    2.778   .     S
Au23   Au27    2.779   .     S
Au27   Au37    2.781   .     S
Au35   Au39    2.764   .     S
Au35   Au38    2.777   .     S
