data_65-34
_audit_creation_date              2023-04-12
_audit_creation_method            'Materials Studio'
_symmetry_space_group_name_H-M    'P1'
_symmetry_Int_Tables_number       1
_symmetry_cell_setting            triclinic
loop_
_symmetry_equiv_pos_as_xyz
  x,y,z
_cell_length_a                    20.0000
_cell_length_b                    20.0000
_cell_length_c                    20.0000
_cell_angle_alpha                 90.0000
_cell_angle_beta                  90.0000
_cell_angle_gamma                 90.0000
loop_
_atom_site_label
_atom_site_type_symbol
_atom_site_fract_x
_atom_site_fract_y
_atom_site_fract_z
_atom_site_U_iso_or_equiv
_atom_site_adp_type
_atom_site_occupancy
Au1    Au    0.51113   1.49568   0.49869   0.00000  Uiso   1.00
Au2    Au    0.52516   1.39694   0.62514   0.00000  Uiso   1.00
Au3    Au    0.61418   1.51776   0.60771   0.00000  Uiso   1.00
Au4    Au    0.61164   1.39375   0.51096   0.00000  Uiso   1.00
Au5    Au    0.41761   1.49120   0.60281   0.00000  Uiso   1.00
Au6    Au    0.60778   1.49613   0.39444   0.00000  Uiso   1.00
Au7    Au    0.49467   1.61951   0.57782   0.00000  Uiso   1.00
Au8    Au    0.50806   1.37908   0.40955   0.00000  Uiso   1.00
Au9    Au    0.60821   1.61255   0.47908   0.00000  Uiso   1.00
Au10   Au    0.55495   1.49423   0.73284   0.00000  Uiso   1.00
Au11   Au    0.71092   1.50778   0.50422   0.00000  Uiso   1.00
Au12   Au    0.62468   1.37366   0.72437   0.00000  Uiso   1.00
Au13   Au    0.39654   1.58573   0.47777   0.00000  Uiso   1.00
Au14   Au    0.41893   1.41199   0.72109   0.00000  Uiso   1.00
Au15   Au    0.70920   1.40553   0.60755   0.00000  Uiso   1.00
Au16   Au    0.69639   1.62996   0.58343   0.00000  Uiso   1.00
Au17   Au    0.60566   1.23638   0.62120   0.00000  Uiso   1.00
Au18   Au    0.49649   1.58484   0.37414   0.00000  Uiso   1.00
Au19   Au    0.39050   1.39158   0.50986   0.00000  Uiso   1.00
Au20   Au    0.39969   1.47270   0.38929   0.00000  Uiso   1.00
Au21   Au    0.49430   1.29611   0.52697   0.00000  Uiso   1.00
Au22   Au    0.69263   1.38465   0.38119   0.00000  Uiso   1.00
Au23   Au    0.43032   1.58289   0.70441   0.00000  Uiso   1.00
Au24   Au    0.57829   1.63195   0.68779   0.00000  Uiso   1.00
Au25   Au    0.39258   1.30673   0.63081   0.00000  Uiso   1.00
Au26   Au    0.30039   1.41538   0.62906   0.00000  Uiso   1.00
Au27   Au    0.61330   1.27674   0.42480   0.00000  Uiso   1.00
Au28   Au    0.60989   1.31851   0.27641   0.00000  Uiso   1.00
Au29   Au    0.51198   1.47236   0.28997   0.00000  Uiso   1.00
Au30   Au    0.63833   1.76733   0.51966   0.00000  Uiso   1.00
Au31   Au    0.74284   1.55475   0.35604   0.00000  Uiso   1.00
Au32   Au    0.50181   1.70298   0.44780   0.00000  Uiso   1.00
Au33   Au    0.28332   1.49553   0.51165   0.00000  Uiso   1.00
Au34   Au    0.33098   1.60539   0.60092   0.00000  Uiso   1.00
Au35   Au    0.57666   1.57858   0.22410   0.00000  Uiso   1.00
Au36   Au    0.66132   1.47335   0.26663   0.00000  Uiso   1.00
Au37   Au    0.27631   1.57967   0.72988   0.00000  Uiso   1.00
Au38   Au    0.70857   1.28108   0.53894   0.00000  Uiso   1.00
Au39   Au    0.51706   1.28441   0.76766   0.00000  Uiso   1.00
Au40   Au    0.39935   1.72557   0.54518   0.00000  Uiso   1.00
Au41   Au    0.30787   1.36242   0.39602   0.00000  Uiso   1.00
Au42   Au    0.37809   1.24653   0.46263   0.00000  Uiso   1.00
Au43   Au    0.29726   1.57352   0.37245   0.00000  Uiso   1.00
Au44   Au    0.73751   1.69300   0.42351   0.00000  Uiso   1.00
Au45   Au    0.41433   1.34894   0.30811   0.00000  Uiso   1.00
Au46   Au    0.47714   1.24153   0.36990   0.00000  Uiso   1.00
Au47   Au    0.60382   1.67379   0.34898   0.00000  Uiso   1.00
Au48   Au    0.52001   1.76615   0.61613   0.00000  Uiso   1.00
Au49   Au    0.36206   1.69883   0.40088   0.00000  Uiso   1.00
Au50   Au    0.39765   1.57140   0.27767   0.00000  Uiso   1.00
Au51   Au    0.25300   1.67997   0.50363   0.00000  Uiso   1.00
Au52   Au    0.25553   1.31486   0.53062   0.00000  Uiso   1.00
Au53   Au    0.23419   1.39210   0.76278   0.00000  Uiso   1.00
Au54   Au    0.33822   1.26406   0.78052   0.00000  Uiso   1.00
Au55   Au    0.67939   1.56542   0.12286   0.00000  Uiso   1.00
Au56   Au    0.44708   1.71702   0.26591   0.00000  Uiso   1.00
Au57   Au    0.61351   1.71354   0.17789   0.00000  Uiso   1.00
Au58   Au    0.21644   1.44383   0.29192   0.00000  Uiso   1.00
Au59   Au    0.60386   1.17373   0.31829   0.00000  Uiso   1.00
Au60   Au    0.29048   1.73259   0.66082   0.00000  Uiso   1.00
Au61   Au    0.32317   1.44344   0.20029   0.00000  Uiso   1.00
S1     S     0.21001   1.58130   0.45966   0.00000  Uiso   1.00
S2     S     0.51093   1.36710   0.23140   0.00000  Uiso   1.00
S3     S     0.69896   1.45784   0.15721   0.00000  Uiso   1.00
S4     S     0.57089   1.20132   0.51562   0.00000  Uiso   1.00
S5     S     0.62651   1.25007   0.73528   0.00000  Uiso   1.00
S6     S     0.74965   1.73053   0.53391   0.00000  Uiso   1.00
S7     S     0.24007   1.29894   0.83102   0.00000  Uiso   1.00
S8     S     0.21068   1.40310   0.46907   0.00000  Uiso   1.00
S9     S     0.29052   1.78078   0.55342   0.00000  Uiso   1.00
S10    S     0.32034   1.22382   0.56536   0.00000  Uiso   1.00
S11    S     0.22079   1.48349   0.69012   0.00000  Uiso   1.00
S12    S     0.69812   1.23434   0.27727   0.00000  Uiso   1.00
S13    S     0.50180   1.12827   0.35086   0.00000  Uiso   1.00
S14    S     0.23897   1.32790   0.29430   0.00000  Uiso   1.00
S15    S     0.32292   1.32802   0.22329   0.00000  Uiso   1.00
S16    S     0.47054   1.62416   0.19261   0.00000  Uiso   1.00
S17    S     0.30067   1.68912   0.77061   0.00000  Uiso   1.00
S18    S     0.37649   1.78729   0.32622   0.00000  Uiso   1.00
S19    S     0.30050   1.55887   0.19746   0.00000  Uiso   1.00
S20    S     0.66617   1.67284   0.08360   0.00000  Uiso   1.00
S21    S     0.52813   1.80800   0.50513   0.00000  Uiso   1.00
S22    S     0.22018   1.55954   0.27206   0.00000  Uiso   1.00
S23    S     0.42316   1.21744   0.71182   0.00000  Uiso   1.00
S24    S     0.56293   1.76037   0.27220   0.00000  Uiso   1.00
Au62   Au    0.78465   1.52908   0.67724   0.00000  Uiso   1.00
S25    S     0.79534   1.41264   0.69542   0.00000  Uiso   1.00
S26    S     0.76092   1.64370   0.69191   0.00000  Uiso   1.00
Au63   Au    0.68824   1.51778   0.78051   0.00000  Uiso   1.00
S27    S     0.73122   1.40760   0.78439   0.00000  Uiso   1.00
S28    S     0.68105   1.63448   0.76476   0.00000  Uiso   1.00
S29    S     0.72328   1.66151   0.31069   0.00000  Uiso   1.00
S30    S     0.45298   1.50710   0.79547   0.00000  Uiso   1.00
S31    S     0.42717   1.33991   0.82157   0.00000  Uiso   1.00
S32    S     0.78074   1.46099   0.41638   0.00000  Uiso   1.00
Au64   Au    0.75216   1.25526   0.38002   0.00000  Uiso   1.00
S33    S     0.80790   1.27546   0.48000   0.00000  Uiso   1.00
Au65   Au    0.41582   1.71154   0.75207   0.00000  Uiso   1.00
S34    S     0.52769   1.73811   0.73044   0.00000  Uiso   1.00
loop_
_geom_bond_atom_site_label_1
_geom_bond_atom_site_label_2
_geom_bond_distance
_geom_bond_site_symmetry_2
_ccdc_geom_bond_type
Au4    Au15    2.756   .     S
Au5    Au19    2.778   .     S
Au5    Au23    2.749   .     S
Au7    Au24    2.774   .     S
Au9    Au16    2.755   .     S
Au10   S30     2.407   .     S
Au11   S32     2.431   .     S
Au12   S27     2.538   .     S
Au12   S5      2.482   .     S
Au14   S30     2.509   .     S
Au14   S31     2.479   .     S
Au15   S25     2.465   .     S
Au16   S26     2.539   .     S
Au16   S6      2.482   .     S
Au17   Au38    2.783   .     S
Au17   S4      2.331   .     S
Au17   S5      2.335   .     S
Au18   Au50    2.775   .     S
Au21   S4      2.448   .     S
Au22   S32     2.435   .     S
Au23   Au65    2.759   .     S
Au23   S30     2.412   .     S
Au24   S34     2.502   .     S
Au24   S28     2.568   .     S
Au25   S10     2.559   .     S
Au25   S23     2.488   .     S
Au26   S11     2.425   .     S
Au27   S4      2.509   .     S
Au28   S2      2.382   .     S
Au28   S12     2.439   .     S
Au29   S2      2.409   .     S
Au30   S21     2.367   .     S
Au30   S6      2.362   .     S
Au31   S29     2.352   .     S
Au31   S32     2.355   .     S
Au32   S21     2.450   .     S
Au33   S8      2.501   .     S
Au33   S1      2.485   .     S
Au35   S16     2.394   .     S
Au36   S3      2.335   .     S
Au37   S17     2.386   .     S
Au37   S11     2.359   .     S
Au38   S33     2.313   .     S
Au39   S31     2.372   .     S
Au39   S23     2.563   .     S
Au39   S5      2.384   .     S
Au40   S9      2.446   .     S
Au41   S14     2.552   .     S
Au41   Au45    2.774   .     S
Au41   S8      2.564   .     S
Au42   Au46    2.715   .     S
Au42   S10     2.400   .     S
Au43   Au50    2.761   .     S
Au43   S22     2.547   .     S
Au43   S1      2.472   .     S
Au44   S29     2.360   .     S
Au44   S6      2.345   .     S
Au45   Au46    2.778   .     S
Au45   S2      2.494   .     S
Au45   S15     2.529   .     S
Au46   S13     2.349   .     S
Au47   S29     2.521   .     S
Au47   S24     2.455   .     S
Au48   S21     2.378   .     S
Au48   S34     2.359   .     S
Au49   S18     2.333   .     S
Au50   S19     2.532   .     S
Au50   S16     2.477   .     S
Au51   S9      2.371   .     S
Au51   S1      2.325   .     S
Au52   S8      2.331   .     S
Au52   S10     2.341   .     S
Au53   S7      2.312   .     S
Au53   S11     2.350   .     S
Au54   S7      2.315   .     S
Au54   S31     2.478   .     S
Au54   S23     2.375   .     S
Au55   S20     2.303   .     S
Au55   S3      2.292   .     S
Au56   S24     2.477   .     S
Au56   S16     2.412   .     S
Au56   S18     2.329   .     S
Au57   S24     2.336   .     S
Au57   S20     2.308   .     S
Au58   S14     2.362   .     S
Au58   S22     2.349   .     S
Au59   S13     2.328   .     S
Au59   S12     2.387   .     S
Au60   S9      2.354   .     S
Au60   S17     2.370   .     S
Au61   S19     2.354   .     S
Au61   S15     2.354   .     S
S12    Au64    2.359   .     S
S14    S15     2.199   .     S
S17    Au65    2.375   .     S
S19    S22     2.192   .     S
Au62   S25     2.367   .     S
Au62   S26     2.359   .     S
S25    S27     2.196   .     S
S26    S28     2.170   .     S
Au63   S27     2.367   .     S
Au63   S28     2.360   .     S
Au64   S33     2.325   .     S
Au65   S34     2.340   .     S
