data_67-35-ch3
_audit_creation_date              2022-11-25
_audit_creation_method            'Materials Studio'
_symmetry_space_group_name_H-M    'P1'
_symmetry_Int_Tables_number       1
_symmetry_cell_setting            triclinic
loop_
_symmetry_equiv_pos_as_xyz
  x,y,z
_cell_length_a                    25.0000
_cell_length_b                    25.0000
_cell_length_c                    25.0000
_cell_angle_alpha                 90.0000
_cell_angle_beta                  90.0000
_cell_angle_gamma                 90.0000
loop_
_atom_site_label
_atom_site_type_symbol
_atom_site_fract_x
_atom_site_fract_y
_atom_site_fract_z
_atom_site_U_iso_or_equiv
_atom_site_adp_type
_atom_site_occupancy
Au1    Au    0.49043   0.54027   0.43129   0.00000  Uiso   1.00
Au2    Au    0.55375   0.47732   0.35573   0.00000  Uiso   1.00
Au3    Au    0.49663   0.57951   0.32312   0.00000  Uiso   1.00
Au4    Au    0.45378   0.49227   0.25721   0.00000  Uiso   1.00
Au5    Au    0.56944   0.52416   0.24929   0.00000  Uiso   1.00
Au6    Au    0.55939   0.43506   0.46502   0.00000  Uiso   1.00
Au7    Au    0.40237   0.51238   0.36015   0.00000  Uiso   1.00
Au8    Au    0.52529   0.40064   0.27226   0.00000  Uiso   1.00
Au9    Au    0.60448   0.53968   0.44400   0.00000  Uiso   1.00
Au10   Au    0.62067   0.38173   0.55053   0.00000  Uiso   1.00
Au11   Au    0.36640   0.37682   0.51648   0.00000  Uiso   1.00
Au12   Au    0.64173   0.64636   0.42878   0.00000  Uiso   1.00
Au13   Au    0.65354   0.62451   0.56288   0.00000  Uiso   1.00
Au14   Au    0.60834   0.36333   0.19975   0.00000  Uiso   1.00
Au15   Au    0.33383   0.46566   0.28220   0.00000  Uiso   1.00
Au16   Au    0.57395   0.51674   0.07783   0.00000  Uiso   1.00
Au17   Au    0.44609   0.70219   0.22240   0.00000  Uiso   1.00
Au18   Au    0.63233   0.59194   0.17540   0.00000  Uiso   1.00
Au19   Au    0.58331   0.30835   0.29833   0.00000  Uiso   1.00
Au20   Au    0.61000   0.58870   0.33908   0.00000  Uiso   1.00
Au21   Au    0.75241   0.45220   0.29120   0.00000  Uiso   1.00
Au22   Au    0.54520   0.59857   0.51726   0.00000  Uiso   1.00
Au23   Au    0.61582   0.73117   0.34443   0.00000  Uiso   1.00
Au24   Au    0.42146   0.40147   0.32492   0.00000  Uiso   1.00
Au25   Au    0.74377   0.40190   0.39343   0.00000  Uiso   1.00
Au26   Au    0.52112   0.36234   0.38105   0.00000  Uiso   1.00
Au27   Au    0.70653   0.34185   0.48687   0.00000  Uiso   1.00
Au28   Au    0.40544   0.61863   0.39252   0.00000  Uiso   1.00
Au29   Au    0.42550   0.39785   0.20757   0.00000  Uiso   1.00
Au30   Au    0.59591   0.49924   0.55302   0.00000  Uiso   1.00
Au31   Au    0.68668   0.65093   0.25546   0.00000  Uiso   1.00
Au32   Au    0.44415   0.43275   0.43616   0.00000  Uiso   1.00
Au33   Au    0.67922   0.24854   0.38635   0.00000  Uiso   1.00
Au34   Au    0.48829   0.59349   0.20949   0.00000  Uiso   1.00
Au35   Au    0.41510   0.32083   0.40367   0.00000  Uiso   1.00
Au36   Au    0.63566   0.43360   0.28139   0.00000  Uiso   1.00
Au37   Au    0.72001   0.60080   0.35668   0.00000  Uiso   1.00
Au38   Au    0.52417   0.64605   0.41440   0.00000  Uiso   1.00
Au39   Au    0.69654   0.34074   0.30761   0.00000  Uiso   1.00
Au40   Au    0.38920   0.59057   0.27989   0.00000  Uiso   1.00
Au41   Au    0.71877   0.55376   0.46101   0.00000  Uiso   1.00
Au42   Au    0.67742   0.49374   0.36922   0.00000  Uiso   1.00
Au43   Au    0.32961   0.42488   0.38749   0.00000  Uiso   1.00
Au44   Au    0.48024   0.48988   0.53165   0.00000  Uiso   1.00
Au45   Au    0.46014   0.30082   0.29718   0.00000  Uiso   1.00
Au46   Au    0.67420   0.44991   0.47914   0.00000  Uiso   1.00
Au47   Au    0.48913   0.22736   0.47368   0.00000  Uiso   1.00
Au48   Au    0.63279   0.38488   0.38739   0.00000  Uiso   1.00
Au49   Au    0.53153   0.25396   0.19806   0.00000  Uiso   1.00
Au50   Au    0.52946   0.43681   0.63425   0.00000  Uiso   1.00
Au51   Au    0.76514   0.45727   0.55434   0.00000  Uiso   1.00
Au52   Au    0.44196   0.68168   0.50124   0.00000  Uiso   1.00
Au53   Au    0.78724   0.55860   0.20455   0.00000  Uiso   1.00
Au54   Au    0.52107   0.45193   0.17163   0.00000  Uiso   1.00
Au55   Au    0.72715   0.36866   0.17669   0.00000  Uiso   1.00
Au56   Au    0.38307   0.51634   0.47553   0.00000  Uiso   1.00
Au57   Au    0.22748   0.50212   0.33204   0.00000  Uiso   1.00
Au58   Au    0.68460   0.53807   0.25911   0.00000  Uiso   1.00
Au59   Au    0.82159   0.51347   0.38292   0.00000  Uiso   1.00
Au60   Au    0.63725   0.47279   0.17193   0.00000  Uiso   1.00
Au61   Au    0.57140   0.65484   0.25946   0.00000  Uiso   1.00
Au62   Au    0.49737   0.34318   0.49152   0.00000  Uiso   1.00
Au63   Au    0.37889   0.52638   0.16112   0.00000  Uiso   1.00
Au64   Au    0.34735   0.30775   0.23829   0.00000  Uiso   1.00
Au65   Au    0.25004   0.35868   0.32096   0.00000  Uiso   1.00
Au66   Au    0.60064   0.30640   0.45810   0.00000  Uiso   1.00
Au67   Au    0.29000   0.58107   0.42909   0.00000  Uiso   1.00
S103   S     0.38638   0.32708   0.15455   0.00000  Uiso   1.00
S104   S     0.30729   0.28400   0.31995   0.00000  Uiso   1.00
S105   S     0.18051   0.42162   0.32008   0.00000  Uiso   1.00
S106   S     0.25718   0.59115   0.34168   0.00000  Uiso   1.00
S107   S     0.31703   0.57228   0.51923   0.00000  Uiso   1.00
S108   S     0.30046   0.48333   0.19182   0.00000  Uiso   1.00
S109   S     0.45082   0.57307   0.12117   0.00000  Uiso   1.00
S110   S     0.53074   0.43294   0.07567   0.00000  Uiso   1.00
S111   S     0.61584   0.60090   0.08095   0.00000  Uiso   1.00
S112   S     0.47860   0.21094   0.26302   0.00000  Uiso   1.00
S113   S     0.58369   0.29672   0.13284   0.00000  Uiso   1.00
S114   S     0.74523   0.29678   0.23543   0.00000  Uiso   1.00
S115   S     0.71120   0.43874   0.11553   0.00000  Uiso   1.00
S116   S     0.81757   0.47049   0.21999   0.00000  Uiso   1.00
S117   S     0.76108   0.64661   0.18438   0.00000  Uiso   1.00
S118   S     0.70132   0.73671   0.30532   0.00000  Uiso   1.00
S119   S     0.52925   0.73739   0.38029   0.00000  Uiso   1.00
S120   S     0.83262   0.42872   0.42335   0.00000  Uiso   1.00
S121   S     0.81676   0.59944   0.34404   0.00000  Uiso   1.00
S122   S     0.76017   0.36496   0.57144   0.00000  Uiso   1.00
S123   S     0.77365   0.55048   0.54234   0.00000  Uiso   1.00
S124   S     0.64539   0.55085   0.62145   0.00000  Uiso   1.00
S125   S     0.66278   0.70049   0.50725   0.00000  Uiso   1.00
S126   S     0.49027   0.65359   0.57655   0.00000  Uiso   1.00
S127   S     0.39260   0.70963   0.42612   0.00000  Uiso   1.00
S128   S     0.59094   0.36586   0.64077   0.00000  Uiso   1.00
S129   S     0.46656   0.50678   0.62745   0.00000  Uiso   1.00
S130   S     0.43957   0.35028   0.57047   0.00000  Uiso   1.00
S131   S     0.28657   0.40023   0.47166   0.00000  Uiso   1.00
S132   S     0.57955   0.21763   0.49708   0.00000  Uiso   1.00
S133   S     0.39810   0.23594   0.45018   0.00000  Uiso   1.00
S134   S     0.35771   0.66964   0.23061   0.00000  Uiso   1.00
S135   S     0.53385   0.73528   0.21554   0.00000  Uiso   1.00
S136   S     0.60722   0.22031   0.33302   0.00000  Uiso   1.00
S137   S     0.75275   0.26416   0.44324   0.00000  Uiso   1.00
loop_
_geom_bond_atom_site_label_1
_geom_bond_atom_site_label_2
_geom_bond_distance
_geom_bond_site_symmetry_2
_ccdc_geom_bond_type
Au4    Au29    2.759   .     S
Au7    Au28    2.778   .     S
Au9    Au22    2.778   .     S
Au10   S128    2.408   .     S
Au11   S131    2.362   .     S
Au11   S130    2.368   .     S
Au12   S125    2.441   .     S
Au12   Au20    2.781   .     S
Au13   S124    2.361   .     S
Au13   S125    2.366   .     S
Au14   Au36    2.778   .     S
Au14   S113    2.439   .     S
Au15   S108    2.449   .     S
Au16   S111    2.351   .     S
Au16   S110    2.358   .     S
Au17   S135    2.351   .     S
Au17   S134    2.364   .     S
Au18   S111    2.407   .     S
Au19   S136    2.440   .     S
Au20   Au61    2.762   .     S
Au21   S116    2.456   .     S
Au22   S126    2.444   .     S
Au23   S119    2.348   .     S
Au23   S118    2.355   .     S
Au25   S120    2.438   .     S
Au27   S137    2.509   .     S
Au27   S122    2.569   .     S
Au28   S127    2.446   .     S
Au29   S103    2.417   .     S
Au30   S124    2.474   .     S
Au31   S117    2.575   .     S
Au31   S118    2.507   .     S
Au32   Au56    2.769   .     S
Au33   S136    2.348   .     S
Au33   S137    2.357   .     S
Au34   S109    2.452   .     S
Au35   S133    2.457   .     S
Au37   S121    2.439   .     S
Au38   S119    2.441   .     S
Au39   Au48    2.781   .     S
Au39   S114    2.438   .     S
Au40   S134    2.459   .     S
Au41   S123    2.454   .     S
Au43   S131    2.442   .     S
Au44   S129    2.456   .     S
Au45   S112    2.448   .     S
Au47   S133    2.360   .     S
Au47   S132    2.348   .     S
Au48   Au66    2.760   .     S
Au49   S112    2.355   .     S
Au49   S113    2.346   .     S
Au50   S128    2.353   .     S
Au50   S129    2.358   .     S
Au51   S123    2.359   .     S
Au51   S122    2.350   .     S
Au52   S127    2.353   .     S
Au52   S126    2.344   .     S
Au53   S116    2.361   .     S
Au53   S117    2.350   .     S
Au54   S110    2.457   .     S
Au55   S115    2.359   .     S
Au55   S114    2.364   .     S
Au56   S107    2.424   .     S
Au57   S106    2.359   .     S
Au57   S105    2.349   .     S
Au59   S121    2.362   .     S
Au59   S120    2.364   .     S
Au60   S115    2.476   .     S
Au61   S135    2.476   .     S
Au62   S130    2.453   .     S
Au63   S109    2.365   .     S
Au63   S108    2.365   .     S
Au64   S103    2.360   .     S
Au64   S104    2.350   .     S
Au65   S105    2.345   .     S
Au65   S104    2.353   .     S
Au66   S132    2.481   .     S
Au67   S107    2.363   .     S
Au67   S106    2.348   .     S
