data_8e-26-18
_audit_creation_date              2023-04-12
_audit_creation_method            'Materials Studio'
_symmetry_space_group_name_H-M    'P1'
_symmetry_Int_Tables_number       1
_symmetry_cell_setting            triclinic
loop_
_symmetry_equiv_pos_as_xyz
  x,y,z
_cell_length_a                    20.0000
_cell_length_b                    20.0000
_cell_length_c                    20.0000
_cell_angle_alpha                 90.0000
_cell_angle_beta                  90.0000
_cell_angle_gamma                 90.0000
loop_
_atom_site_label
_atom_site_type_symbol
_atom_site_fract_x
_atom_site_fract_y
_atom_site_fract_z
_atom_site_U_iso_or_equiv
_atom_site_adp_type
_atom_site_occupancy
Au1    Au    1.35600   0.40304   0.40311   0.00000  Uiso   1.00
Au2    Au    1.30174   0.63199   0.43006   0.00000  Uiso   1.00
Au3    Au    1.54168   0.39867   0.65676   0.00000  Uiso   1.00
Au4    Au    1.55134   0.41654   0.41708   0.00000  Uiso   1.00
Au5    Au    1.54042   0.61345   0.40685   0.00000  Uiso   1.00
Au6    Au    1.65824   0.50561   0.43471   0.00000  Uiso   1.00
Au7    Au    1.67131   0.52130   0.63835   0.00000  Uiso   1.00
Au8    Au    1.54122   0.78856   0.55469   0.00000  Uiso   1.00
Au9    Au    1.40145   0.24257   0.42502   0.00000  Uiso   1.00
Au10   Au    1.43605   0.51473   0.41312   0.00000  Uiso   1.00
Au11   Au    1.63209   0.40478   0.53396   0.00000  Uiso   1.00
Au12   Au    1.68377   0.63739   0.49999   0.00000  Uiso   1.00
Au13   Au    1.45673   0.78735   0.37812   0.00000  Uiso   1.00
Au14   Au    1.58254   0.24219   0.49989   0.00000  Uiso   1.00
Au15   Au    1.43873   0.41493   0.51727   0.00000  Uiso   1.00
Au16   Au    1.44896   0.39411   0.27880   0.00000  Uiso   1.00
Au17   Au    1.41943   0.62457   0.33216   0.00000  Uiso   1.00
Au18   Au    1.31240   0.51066   0.29974   0.00000  Uiso   1.00
Au19   Au    1.33119   0.50353   0.50306   0.00000  Uiso   1.00
Au20   Au    1.67471   0.51332   0.27687   0.00000  Uiso   1.00
Au21   Au    1.31367   0.51504   0.65959   0.00000  Uiso   1.00
Au22   Au    1.51802   0.52370   0.30178   0.00000  Uiso   1.00
S23    S     1.58516   0.51395   0.20045   0.00000  Uiso   1.00
S24    S     1.41359   0.73386   0.28273   0.00000  Uiso   1.00
S25    S     1.36718   0.70276   0.49725   0.00000  Uiso   1.00
S26    S     1.62132   0.70181   0.42439   0.00000  Uiso   1.00
S27    S     1.40381   0.50917   0.73474   0.00000  Uiso   1.00
S28    S     1.60950   0.46780   0.72359   0.00000  Uiso   1.00
S29    S     1.59333   0.73554   0.64611   0.00000  Uiso   1.00
S30    S     1.37215   0.45570   0.21411   0.00000  Uiso   1.00
S31    S     1.30876   0.29588   0.37541   0.00000  Uiso   1.00
S32    S     1.23039   0.56263   0.36703   0.00000  Uiso   1.00
S33    S     1.75593   0.51347   0.36210   0.00000  Uiso   1.00
S34    S     1.68102   0.29501   0.53692   0.00000  Uiso   1.00
S35    S     1.23321   0.52154   0.57415   0.00000  Uiso   1.00
S36    S     1.75289   0.57779   0.57446   0.00000  Uiso   1.00
S37    S     1.49463   0.85310   0.46816   0.00000  Uiso   1.00
S38    S     1.48930   0.17766   0.46855   0.00000  Uiso   1.00
S39    S     1.47034   0.32807   0.59566   0.00000  Uiso   1.00
S40    S     1.52564   0.32818   0.33826   0.00000  Uiso   1.00
Au41   Au    1.56580   0.62776   0.60026   0.00000  Uiso   1.00
Au42   Au    1.46743   0.52719   0.63147   0.00000  Uiso   1.00
Au43   Au    1.44667   0.61550   0.52505   0.00000  Uiso   1.00
Au44   Au    1.55133   0.51569   0.52160   0.00000  Uiso   1.00
loop_
_geom_bond_atom_site_label_1
_geom_bond_atom_site_label_2
_geom_bond_distance
_geom_bond_site_symmetry_2
_ccdc_geom_bond_type
Au1    Au10    2.756   .     S
Au1    S31     2.407   .     S
Au2    S32     2.356   .     S
Au2    S25     2.350   .     S
Au3    S28     2.353   .     S
Au3    S39     2.350   .     S
Au4    S40     2.423   .     S
Au5    S26     2.422   .     S
Au6    S33     2.439   .     S
Au6    Au44    2.763   .     S
Au7    S28     2.362   .     S
Au7    S36     2.360   .     S
Au8    S37     2.351   .     S
Au8    S29     2.357   .     S
Au9    S31     2.358   .     S
Au9    S38     2.352   .     S
Au10   Au17    2.749   .     S
Au10   Au22    2.771   .     S
Au10   Au19    2.772   .     S
Au11   Au44    2.755   .     S
Au11   S34     2.404   .     S
Au12   S36     2.356   .     S
Au12   S26     2.347   .     S
Au13   S24     2.351   .     S
Au13   S37     2.355   .     S
Au14   S34     2.354   .     S
Au14   S38     2.353   .     S
Au15   S39     2.424   .     S
Au16   S30     2.356   .     S
Au16   S40     2.346   .     S
Au17   S24     2.402   .     S
Au18   S30     2.360   .     S
Au18   S32     2.362   .     S
Au19   S35     2.448   .     S
Au20   S23     2.355   .     S
Au20   S33     2.355   .     S
Au21   S27     2.350   .     S
Au21   S35     2.351   .     S
Au22   S23     2.439   .     S
S25    Au43    2.425   .     S
S27    Au42    2.452   .     S
S29    Au41    2.406   .     S
Au41   Au44    2.754   .     S
Au42   Au44    2.774   .     S
