data_8e-26-19
_audit_creation_date              2023-04-12
_audit_creation_method            'Materials Studio'
_symmetry_space_group_name_H-M    'P1'
_symmetry_Int_Tables_number       1
_symmetry_cell_setting            triclinic
loop_
_symmetry_equiv_pos_as_xyz
  x,y,z
_cell_length_a                    20.0000
_cell_length_b                    20.0000
_cell_length_c                    20.0000
_cell_angle_alpha                 90.0000
_cell_angle_beta                  90.0000
_cell_angle_gamma                 90.0000
loop_
_atom_site_label
_atom_site_type_symbol
_atom_site_fract_x
_atom_site_fract_y
_atom_site_fract_z
_atom_site_U_iso_or_equiv
_atom_site_adp_type
_atom_site_occupancy
Au1    Au    0.40104   0.46106   0.35276   0.00000  Uiso   1.00
Au2    Au    0.60479   0.43569   0.33730   0.00000  Uiso   1.00
Au3    Au    0.40469   0.70557   0.34112   0.00000  Uiso   1.00
Au4    Au    0.62926   0.68985   0.34848   0.00000  Uiso   1.00
Au5    Au    0.38555   0.47310   0.58775   0.00000  Uiso   1.00
Au6    Au    0.65523   0.29068   0.30804   0.00000  Uiso   1.00
Au7    Au    0.50192   0.34400   0.33688   0.00000  Uiso   1.00
Au8    Au    0.50640   0.55555   0.34188   0.00000  Uiso   1.00
Au9    Au    0.27088   0.58195   0.58169   0.00000  Uiso   1.00
Au10   Au    0.52433   0.57168   0.55304   0.00000  Uiso   1.00
Au11   Au    0.65117   0.59070   0.63344   0.00000  Uiso   1.00
Au12   Au    0.50600   0.43712   0.23772   0.00000  Uiso   1.00
Au13   Au    0.52452   0.66898   0.45706   0.00000  Uiso   1.00
Au14   Au    0.65227   0.72211   0.52455   0.00000  Uiso   1.00
Au15   Au    0.53967   0.29381   0.18973   0.00000  Uiso   1.00
Au16   Au    0.29407   0.47759   0.73422   0.00000  Uiso   1.00
Au17   Au    0.37355   0.34364   0.22961   0.00000  Uiso   1.00
Au18   Au    0.40916   0.57731   0.20588   0.00000  Uiso   1.00
Au19   Au    0.37524   0.34066   0.45344   0.00000  Uiso   1.00
Au20   Au    0.41320   0.56211   0.45241   0.00000  Uiso   1.00
Au21   Au    0.61565   0.56605   0.44979   0.00000  Uiso   1.00
Au22   Au    0.41231   0.34502   0.71092   0.00000  Uiso   1.00
S23    S     0.43004   0.25140   0.18261   0.00000  Uiso   1.00
S24    S     0.47735   0.50594   0.14266   0.00000  Uiso   1.00
S25    S     0.65684   0.24896   0.41820   0.00000  Uiso   1.00
S26    S     0.69370   0.51030   0.37473   0.00000  Uiso   1.00
S27    S     0.46821   0.76866   0.41706   0.00000  Uiso   1.00
S28    S     0.69855   0.75242   0.42061   0.00000  Uiso   1.00
S29    S     0.45890   0.27792   0.62750   0.00000  Uiso   1.00
S30    S     0.21913   0.55259   0.68363   0.00000  Uiso   1.00
S31    S     0.46389   0.53458   0.65232   0.00000  Uiso   1.00
S32    S     0.68499   0.47810   0.63255   0.00000  Uiso   1.00
S33    S     0.31087   0.43130   0.27584   0.00000  Uiso   1.00
S34    S     0.33730   0.65183   0.26125   0.00000  Uiso   1.00
S35    S     0.56193   0.63709   0.26856   0.00000  Uiso   1.00
S36    S     0.30852   0.40975   0.52272   0.00000  Uiso   1.00
S37    S     0.31105   0.62397   0.48017   0.00000  Uiso   1.00
S38    S     0.61914   0.70404   0.63658   0.00000  Uiso   1.00
S39    S     0.65442   0.32302   0.19420   0.00000  Uiso   1.00
S40    S     0.36284   0.40640   0.79797   0.00000  Uiso   1.00
Au41   Au    0.60331   0.44881   0.54759   0.00000  Uiso   1.00
Au42   Au    0.48811   0.36627   0.54977   0.00000  Uiso   1.00
Au43   Au    0.50437   0.45714   0.44691   0.00000  Uiso   1.00
Au44   Au    0.59218   0.34422   0.45638   0.00000  Uiso   1.00
S45    S     0.42412   0.26057   0.38163   0.00000  Uiso   1.00
loop_
_geom_bond_atom_site_label_1
_geom_bond_atom_site_label_2
_geom_bond_distance
_geom_bond_site_symmetry_2
_ccdc_geom_bond_type
Au1    S33     2.444   .     S
Au2    S26     2.439   .     S
Au2    Au7     2.756   .     S
Au3    S34     2.350   .     S
Au3    S27     2.348   .     S
Au4    S35     2.341   .     S
Au4    S28     2.360   .     S
Au5    S31     2.374   .     S
Au5    S36     2.381   .     S
Au6    S39     2.367   .     S
Au6    S25     2.356   .     S
Au7    S45     2.451   .     S
Au7    Au12    2.722   .     S
Au8    S35     2.458   .     S
Au9    S37     2.340   .     S
Au9    S30     2.361   .     S
Au10   S31     2.440   .     S
Au10   Au13    2.733   .     S
Au10   Au21    2.759   .     S
Au11   S38     2.356   .     S
Au11   S32     2.351   .     S
Au12   S24     2.416   .     S
Au13   S27     2.425   .     S
Au13   Au21    2.753   .     S
Au14   S28     2.355   .     S
Au14   S38     2.364   .     S
Au15   S23     2.355   .     S
Au15   S39     2.370   .     S
Au16   S40     2.355   .     S
Au16   S30     2.349   .     S
Au17   S23     2.359   .     S
Au17   S33     2.345   .     S
Au18   S24     2.344   .     S
Au18   S34     2.348   .     S
Au19   S36     2.369   .     S
Au19   S45     2.363   .     S
Au20   S37     2.452   .     S
Au21   S26     2.436   .     S
Au22   S40     2.349   .     S
Au22   S29     2.335   .     S
S25    Au44    2.426   .     S
S29    Au42    2.425   .     S
S32    Au41    2.429   .     S
Au42   Au43    2.764   .     S
