data_92-44-ch3
_audit_creation_date              2022-11-25
_audit_creation_method            'Materials Studio'
_symmetry_space_group_name_H-M    'P1'
_symmetry_Int_Tables_number       1
_symmetry_cell_setting            triclinic
loop_
_symmetry_equiv_pos_as_xyz
  x,y,z
_cell_length_a                    25.0000
_cell_length_b                    25.0000
_cell_length_c                    25.0000
_cell_angle_alpha                 90.0000
_cell_angle_beta                  90.0000
_cell_angle_gamma                 90.0000
loop_
_atom_site_label
_atom_site_type_symbol
_atom_site_fract_x
_atom_site_fract_y
_atom_site_fract_z
_atom_site_U_iso_or_equiv
_atom_site_adp_type
_atom_site_occupancy
Au1    Au    0.45908   0.47899   0.43185   0.00000  Uiso   1.00
Au2    Au    0.46418   0.41022   0.52839   0.00000  Uiso   1.00
Au3    Au    0.54658   0.49544   0.50734   0.00000  Uiso   1.00
Au4    Au    0.54608   0.39879   0.43775   0.00000  Uiso   1.00
Au5    Au    0.37694   0.49163   0.52037   0.00000  Uiso   1.00
Au6    Au    0.53842   0.46542   0.33947   0.00000  Uiso   1.00
Au7    Au    0.45927   0.57572   0.50169   0.00000  Uiso   1.00
Au8    Au    0.45761   0.38201   0.36032   0.00000  Uiso   1.00
Au9    Au    0.54072   0.56328   0.40907   0.00000  Uiso   1.00
Au10   Au    0.46668   0.50667   0.59787   0.00000  Uiso   1.00
Au11   Au    0.62816   0.48290   0.41629   0.00000  Uiso   1.00
Au12   Au    0.55257   0.42595   0.60578   0.00000  Uiso   1.00
Au13   Au    0.37035   0.56012   0.42509   0.00000  Uiso   1.00
Au14   Au    0.38289   0.42084   0.61760   0.00000  Uiso   1.00
Au15   Au    0.63366   0.41622   0.51558   0.00000  Uiso   1.00
Au16   Au    0.62956   0.57839   0.48492   0.00000  Uiso   1.00
Au17   Au    0.55465   0.33004   0.53308   0.00000  Uiso   1.00
Au18   Au    0.45025   0.54592   0.33371   0.00000  Uiso   1.00
Au19   Au    0.37582   0.39466   0.44996   0.00000  Uiso   1.00
Au20   Au    0.36952   0.46278   0.35411   0.00000  Uiso   1.00
Au21   Au    0.46078   0.31442   0.45924   0.00000  Uiso   1.00
Au22   Au    0.62847   0.38402   0.34949   0.00000  Uiso   1.00
Au23   Au    0.37990   0.58957   0.59307   0.00000  Uiso   1.00
Au24   Au    0.54899   0.59162   0.57788   0.00000  Uiso   1.00
Au25   Au    0.63567   0.51106   0.58457   0.00000  Uiso   1.00
Au26   Au    0.38020   0.32189   0.53550   0.00000  Uiso   1.00
Au27   Au    0.71593   0.49548   0.49783   0.00000  Uiso   1.00
Au28   Au    0.29735   0.40423   0.54628   0.00000  Uiso   1.00
Au29   Au    0.55113   0.30041   0.36718   0.00000  Uiso   1.00
Au30   Au    0.54536   0.36594   0.27282   0.00000  Uiso   1.00
Au31   Au    0.44619   0.45411   0.26344   0.00000  Uiso   1.00
Au32   Au    0.53982   0.65970   0.48325   0.00000  Uiso   1.00
Au33   Au    0.61642   0.55134   0.31564   0.00000  Uiso   1.00
Au34   Au    0.45419   0.64301   0.40101   0.00000  Uiso   1.00
Au35   Au    0.46674   0.43431   0.69471   0.00000  Uiso   1.00
Au36   Au    0.28957   0.47091   0.44098   0.00000  Uiso   1.00
Au37   Au    0.71482   0.39871   0.42009   0.00000  Uiso   1.00
Au38   Au    0.29194   0.57742   0.52043   0.00000  Uiso   1.00
Au39   Au    0.53321   0.53687   0.24057   0.00000  Uiso   1.00
Au40   Au    0.46288   0.60598   0.66752   0.00000  Uiso   1.00
Au41   Au    0.70626   0.46228   0.32790   0.00000  Uiso   1.00
Au42   Au    0.55861   0.52697   0.67270   0.00000  Uiso   1.00
Au43   Au    0.38609   0.52676   0.68575   0.00000  Uiso   1.00
Au44   Au    0.61709   0.46200   0.24866   0.00000  Uiso   1.00
Au45   Au    0.29859   0.49493   0.61170   0.00000  Uiso   1.00
Au46   Au    0.63727   0.31942   0.45931   0.00000  Uiso   1.00
Au47   Au    0.46502   0.34083   0.62822   0.00000  Uiso   1.00
Au48   Au    0.37006   0.65867   0.50063   0.00000  Uiso   1.00
Au49   Au    0.29112   0.38104   0.37389   0.00000  Uiso   1.00
Au50   Au    0.70578   0.56997   0.38596   0.00000  Uiso   1.00
Au51   Au    0.37956   0.30038   0.37712   0.00000  Uiso   1.00
Au52   Au    0.63635   0.60479   0.65060   0.00000  Uiso   1.00
Au53   Au    0.71892   0.43251   0.59050   0.00000  Uiso   1.00
Au54   Au    0.28181   0.54840   0.34785   0.00000  Uiso   1.00
Au55   Au    0.56093   0.35760   0.69686   0.00000  Uiso   1.00
Au56   Au    0.62292   0.64838   0.38053   0.00000  Uiso   1.00
Au57   Au    0.63241   0.67191   0.55121   0.00000  Uiso   1.00
Au58   Au    0.36961   0.36258   0.28387   0.00000  Uiso   1.00
Au59   Au    0.63651   0.34895   0.61358   0.00000  Uiso   1.00
Au60   Au    0.45621   0.28828   0.29513   0.00000  Uiso   1.00
Au61   Au    0.52313   0.63126   0.31446   0.00000  Uiso   1.00
Au62   Au    0.62848   0.28971   0.28676   0.00000  Uiso   1.00
Au63   Au    0.47376   0.67434   0.57197   0.00000  Uiso   1.00
Au64   Au    0.38820   0.35369   0.70896   0.00000  Uiso   1.00
Au65   Au    0.64109   0.43787   0.68284   0.00000  Uiso   1.00
Au66   Au    0.36234   0.62613   0.33224   0.00000  Uiso   1.00
Au67   Au    0.36366   0.52961   0.26093   0.00000  Uiso   1.00
Au68   Au    0.71756   0.59938   0.56111   0.00000  Uiso   1.00
Au69   Au    0.28782   0.63936   0.41635   0.00000  Uiso   1.00
Au70   Au    0.29956   0.66909   0.58702   0.00000  Uiso   1.00
Au71   Au    0.70484   0.66199   0.46585   0.00000  Uiso   1.00
Au72   Au    0.74220   0.32748   0.53721   0.00000  Uiso   1.00
Au73   Au    0.27559   0.29686   0.45846   0.00000  Uiso   1.00
Au74   Au    0.29748   0.42882   0.72381   0.00000  Uiso   1.00
Au75   Au    0.28773   0.60806   0.68906   0.00000  Uiso   1.00
Au76   Au    0.68978   0.63230   0.29171   0.00000  Uiso   1.00
Au77   Au    0.56638   0.70136   0.66222   0.00000  Uiso   1.00
Au78   Au    0.29638   0.31685   0.64121   0.00000  Uiso   1.00
Au79   Au    0.38240   0.70706   0.66520   0.00000  Uiso   1.00
Au80   Au    0.71228   0.54379   0.21624   0.00000  Uiso   1.00
Au81   Au    0.71258   0.36387   0.24523   0.00000  Uiso   1.00
Au82   Au    0.72309   0.28460   0.35946   0.00000  Uiso   1.00
Au83   Au    0.42520   0.62214   0.21490   0.00000  Uiso   1.00
Au84   Au    0.60403   0.63428   0.20479   0.00000  Uiso   1.00
Au85   Au    0.46593   0.29837   0.78461   0.00000  Uiso   1.00
Au86   Au    0.19981   0.44312   0.31983   0.00000  Uiso   1.00
Au87   Au    0.55577   0.20715   0.23541   0.00000  Uiso   1.00
Au88   Au    0.69468   0.54809   0.74284   0.00000  Uiso   1.00
Au89   Au    0.22383   0.72472   0.51112   0.00000  Uiso   1.00
Au90   Au    0.30963   0.44167   0.19197   0.00000  Uiso   1.00
Au91   Au    0.80673   0.51555   0.61911   0.00000  Uiso   1.00
Au92   Au    0.76141   0.71550   0.34568   0.00000  Uiso   1.00
S1     S     0.21961   0.53170   0.47362   0.00000  Uiso   1.00
S2     S     0.48124   0.38588   0.20185   0.00000  Uiso   1.00
S3     S     0.77529   0.51228   0.27841   0.00000  Uiso   1.00
S4     S     0.51779   0.23800   0.43339   0.00000  Uiso   1.00
S5     S     0.79317   0.37705   0.47543   0.00000  Uiso   1.00
S6     S     0.52829   0.48105   0.75417   0.00000  Uiso   1.00
S7     S     0.50322   0.26340   0.58430   0.00000  Uiso   1.00
S8     S     0.22636   0.55350   0.64326   0.00000  Uiso   1.00
S9     S     0.61192   0.75447   0.59880   0.00000  Uiso   1.00
S10    S     0.78020   0.54794   0.44515   0.00000  Uiso   1.00
S11    S     0.56947   0.72264   0.41327   0.00000  Uiso   1.00
S12    S     0.23288   0.37083   0.68659   0.00000  Uiso   1.00
S13    S     0.52304   0.65257   0.72995   0.00000  Uiso   1.00
S14    S     0.55879   0.29956   0.77405   0.00000  Uiso   1.00
S15    S     0.42296   0.75511   0.59503   0.00000  Uiso   1.00
S16    S     0.22131   0.36017   0.50197   0.00000  Uiso   1.00
S17    S     0.21738   0.70537   0.41997   0.00000  Uiso   1.00
S18    S     0.32476   0.22936   0.41443   0.00000  Uiso   1.00
S19    S     0.35846   0.48378   0.76972   0.00000  Uiso   1.00
S20    S     0.65004   0.20947   0.23341   0.00000  Uiso   1.00
S21    S     0.46253   0.20855   0.24071   0.00000  Uiso   1.00
S22    S     0.64875   0.39536   0.18384   0.00000  Uiso   1.00
S23    S     0.21401   0.35011   0.31918   0.00000  Uiso   1.00
S24    S     0.33682   0.35262   0.19264   0.00000  Uiso   1.00
S25    S     0.79766   0.42759   0.65097   0.00000  Uiso   1.00
S26    S     0.33939   0.66854   0.74043   0.00000  Uiso   1.00
S27    S     0.47119   0.55590   0.16652   0.00000  Uiso   1.00
S28    S     0.70573   0.63708   0.71430   0.00000  Uiso   1.00
S29    S     0.23387   0.74091   0.60358   0.00000  Uiso   1.00
S30    S     0.37169   0.29749   0.78853   0.00000  Uiso   1.00
S31    S     0.37715   0.68951   0.25994   0.00000  Uiso   1.00
S32    S     0.66989   0.23567   0.41980   0.00000  Uiso   1.00
S33    S     0.29236   0.53404   0.19183   0.00000  Uiso   1.00
S34    S     0.81327   0.59982   0.58003   0.00000  Uiso   1.00
S35    S     0.65634   0.57828   0.14865   0.00000  Uiso   1.00
S36    S     0.69737   0.27416   0.60094   0.00000  Uiso   1.00
S37    S     0.41874   0.72278   0.44663   0.00000  Uiso   1.00
S38    S     0.76809   0.72939   0.43793   0.00000  Uiso   1.00
S39    S     0.67375   0.46196   0.77137   0.00000  Uiso   1.00
S40    S     0.18681   0.53470   0.33004   0.00000  Uiso   1.00
S41    S     0.35321   0.25381   0.60050   0.00000  Uiso   1.00
S42    S     0.78172   0.32623   0.29774   0.00000  Uiso   1.00
S43    S     0.75044   0.69977   0.25319   0.00000  Uiso   1.00
S44    S     0.54411   0.69554   0.24363   0.00000  Uiso   1.00
loop_
_geom_bond_atom_site_label_1
_geom_bond_atom_site_label_2
_geom_bond_distance
_geom_bond_site_symmetry_2
_ccdc_geom_bond_type
Au17   S7      2.463   .     S
Au17   Au46    2.782   .     S
Au21   S4      2.470   .     S
Au21   Au26    2.780   .     S
Au26   S41     2.448   .     S
Au27   S10     2.457   .     S
Au28   S16     2.461   .     S
Au29   S4      2.423   .     S
Au30   S2      2.442   .     S
Au31   S2      2.459   .     S
Au32   S11     2.467   .     S
Au34   S37     2.462   .     S
Au34   Au61    2.782   .     S
Au35   S6      2.438   .     S
Au36   S1      2.456   .     S
Au37   S5      2.459   .     S
Au38   S1      2.439   .     S
Au39   S27     2.461   .     S
Au40   S13     2.461   .     S
Au41   S3      2.464   .     S
Au42   S6      2.458   .     S
Au43   S19     2.457   .     S
Au44   S22     2.455   .     S
Au45   S8      2.455   .     S
Au46   S32     2.455   .     S
Au47   S7      2.422   .     S
Au48   S37     2.423   .     S
Au49   S23     2.487   .     S
Au50   S10     2.440   .     S
Au51   S18     2.429   .     S
Au52   S28     2.489   .     S
Au53   S25     2.485   .     S
Au54   S40     2.441   .     S
Au55   S14     2.415   .     S
Au56   S11     2.429   .     S
Au57   S9      2.437   .     S
Au58   S24     2.437   .     S
Au59   S36     2.431   .     S
Au60   S21     2.419   .     S
Au61   S44     2.448   .     S
Au62   S20     2.469   .     S
Au63   S15     2.454   .     S
Au64   S30     2.470   .     S
Au65   S39     2.435   .     S
Au66   S31     2.432   .     S
Au67   S33     2.485   .     S
Au68   S34     2.439   .     S
Au69   S17     2.415   .     S
Au70   S29     2.468   .     S
Au71   S38     2.414   .     S
Au72   S36     2.360   .     S
Au72   S5      2.355   .     S
Au73   S18     2.360   .     S
Au73   S16     2.352   .     S
Au74   S19     2.352   .     S
Au74   S12     2.361   .     S
Au75   S8      2.351   .     S
Au75   S26     2.367   .     S
Au76   S43     2.464   .     S
Au77   S9      2.361   .     S
Au77   S13     2.351   .     S
Au78   S12     2.372   .     S
Au78   S41     2.353   .     S
Au79   S15     2.355   .     S
Au79   S26     2.371   .     S
Au80   S35     2.357   .     S
Au80   S3      2.349   .     S
Au81   S22     2.350   .     S
Au81   S42     2.366   .     S
Au82   S42     2.369   .     S
Au82   S32     2.354   .     S
Au83   S27     2.351   .     S
Au83   S31     2.355   .     S
Au84   S44     2.352   .     S
Au84   S35     2.375   .     S
Au85   S30     2.358   .     S
Au85   S14     2.337   .     S
Au86   S40     2.326   .     S
Au86   S23     2.352   .     S
Au87   S21     2.335   .     S
Au87   S20     2.358   .     S
Au88   S28     2.353   .     S
Au88   S39     2.328   .     S
Au89   S17     2.335   .     S
Au89   S29     2.360   .     S
Au90   S33     2.349   .     S
Au90   S24     2.328   .     S
Au91   S25     2.350   .     S
Au91   S34     2.328   .     S
Au92   S43     2.362   .     S
Au92   S38     2.338   .     S
