data_au11
_audit_creation_date              2023-04-12
_audit_creation_method            'Materials Studio'
_symmetry_space_group_name_H-M    'P1'
_symmetry_Int_Tables_number       1
_symmetry_cell_setting            triclinic
loop_
_symmetry_equiv_pos_as_xyz
  x,y,z
_cell_length_a                    20.0000
_cell_length_b                    20.0000
_cell_length_c                    20.0000
_cell_angle_alpha                 90.0000
_cell_angle_beta                  90.0000
_cell_angle_gamma                 90.0000
loop_
_atom_site_label
_atom_site_type_symbol
_atom_site_fract_x
_atom_site_fract_y
_atom_site_fract_z
_atom_site_U_iso_or_equiv
_atom_site_adp_type
_atom_site_occupancy
Au1    Au    0.64757  -0.55959   0.57250   0.00000  Uiso   1.00
Au2    Au    0.47513  -0.58575   0.61545   0.00000  Uiso   1.00
Au3    Au    0.47677  -0.39254   0.39999   0.00000  Uiso   1.00
Au4    Au    0.64992  -0.41764   0.45179   0.00000  Uiso   1.00
Au5    Au    0.36363  -0.48794   0.50789   0.00000  Uiso   1.00
Au6    Au    0.45354  -0.33056   0.55030   0.00000  Uiso   1.00
Au7    Au    0.43797  -0.63684   0.46260   0.00000  Uiso   1.00
Au8    Au    0.20371  -0.47185   0.52031   0.00000  Uiso   1.00
Au9    Au    0.28294  -0.32490   0.56077   0.00000  Uiso   1.00
Au10   Au    0.52819  -0.48708   0.51189   0.00000  Uiso   1.00
Au11   Au    0.27487  -0.62796   0.46200   0.00000  Uiso   1.00
S1     S     0.19436  -0.38887   0.60306   0.00000  Uiso   1.00
S2     S     0.19726  -0.54658   0.42954   0.00000  Uiso   1.00
S3     S     0.51688  -0.56248   0.41896   0.00000  Uiso   1.00
S4     S     0.35198  -0.71121   0.49414   0.00000  Uiso   1.00
S5     S     0.58478  -0.34716   0.38284   0.00000  Uiso   1.00
S6     S     0.37315  -0.44974   0.39583   0.00000  Uiso   1.00
S7     S     0.58018  -0.63759   0.63035   0.00000  Uiso   1.00
S8     S     0.37285  -0.52670   0.62005   0.00000  Uiso   1.00
S9     S     0.72165  -0.48552   0.51741   0.00000  Uiso   1.00
S10    S     0.54259  -0.39598   0.58919   0.00000  Uiso   1.00
S11    S     0.36787  -0.25839   0.51466   0.00000  Uiso   1.00
loop_
_geom_bond_atom_site_label_1
_geom_bond_atom_site_label_2
_geom_bond_distance
_geom_bond_site_symmetry_2
_ccdc_geom_bond_type
Au1    S9      2.367   .     S
Au1    S7      2.364   .     S
Au2    S8      2.364   .     S
Au2    S7      2.362   .     S
Au3    S6      2.369   .     S
Au3    S5      2.368   .     S
Au4    S5      2.363   .     S
Au4    S9      2.371   .     S
Au5    S6      2.376   .     S
Au5    S8      2.381   .     S
Au6    S11     2.351   .     S
Au6    S10     2.343   .     S
Au7    S4      2.360   .     S
Au7    S3      2.338   .     S
Au8    S1      2.351   .     S
Au8    S2      2.355   .     S
Au9    S11     2.346   .     S
Au9    S1      2.343   .     S
Au10   S10     2.407   .     S
Au10   S3      2.404   .     S
Au11   S4      2.359   .     S
Au11   S2      2.341   .     S
