data_Au22-sr16iso
_audit_creation_date              2023-04-12
_audit_creation_method            'Materials Studio'
_symmetry_space_group_name_H-M    'P1'
_symmetry_Int_Tables_number       1
_symmetry_cell_setting            triclinic
loop_
_symmetry_equiv_pos_as_xyz
  x,y,z
_cell_length_a                    20.0000
_cell_length_b                    20.0000
_cell_length_c                    20.0000
_cell_angle_alpha                 90.0000
_cell_angle_beta                  90.0000
_cell_angle_gamma                 90.0000
loop_
_atom_site_label
_atom_site_type_symbol
_atom_site_fract_x
_atom_site_fract_y
_atom_site_fract_z
_atom_site_U_iso_or_equiv
_atom_site_adp_type
_atom_site_occupancy
Au1    Au    1.54686   0.45349   0.32973   0.00000  Uiso   1.00
Au2    Au    1.51173   0.45804   0.46631   0.00000  Uiso   1.00
Au3    Au    1.43672   0.36589   0.37240   0.00000  Uiso   1.00
Au4    Au    1.35887   0.46531   0.42928   0.00000  Uiso   1.00
Au5    Au    1.56515   0.34785   0.53203   0.00000  Uiso   1.00
Au6    Au    1.42363   0.35956   0.51910   0.00000  Uiso   1.00
Au7    Au    1.60365   0.55886   0.40926   0.00000  Uiso   1.00
Au8    Au    1.59317   0.53885   0.55239   0.00000  Uiso   1.00
Au9    Au    1.46484   0.56029   0.38642   0.00000  Uiso   1.00
Au10   Au    1.60697   0.32224   0.38164   0.00000  Uiso   1.00
Au11   Au    1.30119   0.59025   0.33898   0.00000  Uiso   1.00
Au12   Au    1.42092   0.57165   0.55085   0.00000  Uiso   1.00
Au13   Au    1.30446   0.30082   0.42162   0.00000  Uiso   1.00
Au14   Au    1.48996   0.44435   0.60727   0.00000  Uiso   1.00
Au15   Au    1.66555   0.44793   0.48163   0.00000  Uiso   1.00
Au16   Au    1.38242   0.47000   0.29407   0.00000  Uiso   1.00
Au17   Au    1.24168   0.42412   0.32528   0.00000  Uiso   1.00
Au18   Au    1.49051   0.47064   0.18640   0.00000  Uiso   1.00
Au19   Au    1.63781   0.29581   0.67440   0.00000  Uiso   1.00
Au20   Au    1.56011   0.40745   0.75376   0.00000  Uiso   1.00
Au21   Au    1.77876   0.55998   0.43537   0.00000  Uiso   1.00
S22    S     1.40108   0.65260   0.33959   0.00000  Uiso   1.00
S23    S     1.60941   0.24357   0.57397   0.00000  Uiso   1.00
S24    S     1.46015   0.45931   0.72316   0.00000  Uiso   1.00
S25    S     1.70160   0.61962   0.36966   0.00000  Uiso   1.00
S26    S     1.60102   0.44963   0.21969   0.00000  Uiso   1.00
S27    S     1.66081   0.35059   0.77610   0.00000  Uiso   1.00
S28    S     1.85866   0.51191   0.50902   0.00000  Uiso   1.00
S29    S     1.19813   0.53318   0.33711   0.00000  Uiso   1.00
S30    S     1.71418   0.36173   0.41331   0.00000  Uiso   1.00
S31    S     1.27164   0.31091   0.30890   0.00000  Uiso   1.00
S32    S     1.50783   0.27206   0.34207   0.00000  Uiso   1.00
S33    S     1.32574   0.29210   0.53706   0.00000  Uiso   1.00
S34    S     1.37547   0.48872   0.17234   0.00000  Uiso   1.00
S35    S     1.32039   0.51160   0.53544   0.00000  Uiso   1.00
S36    S     1.51543   0.63404   0.58346   0.00000  Uiso   1.00
Au37   Au    1.76382   0.50750   0.57955   0.00000  Uiso   1.00
S38    S     1.66943   0.51864   0.64703   0.00000  Uiso   1.00
loop_
_geom_bond_atom_site_label_1
_geom_bond_atom_site_label_2
_geom_bond_distance
_geom_bond_site_symmetry_2
_ccdc_geom_bond_type
Au1    S26     2.454   .     S
Au2    Au5     2.779   .     S
Au2    Au9     2.759   .     S
Au3    S32     2.431   .     S
Au3    Au4     2.770   .     S
Au4    S35     2.441   .     S
Au4    Au16    2.747   .     S
Au5    S23     2.416   .     S
Au6    S33     2.404   .     S
Au7    S25     2.437   .     S
Au8    Au15    2.721   .     S
Au8    S36     2.535   .     S
Au8    S38     2.464   .     S
Au9    S22     2.431   .     S
Au10   S32     2.359   .     S
Au10   S30     2.371   .     S
Au11   S22     2.355   .     S
Au11   S29     2.356   .     S
Au12   S35     2.362   .     S
Au12   S36     2.357   .     S
Au13   S31     2.357   .     S
Au13   S33     2.354   .     S
Au14   S24     2.412   .     S
Au15   S30     2.405   .     S
Au16   S34     2.467   .     S
Au17   S29     2.360   .     S
Au17   S31     2.365   .     S
Au18   S34     2.346   .     S
Au18   S26     2.346   .     S
Au19   S23     2.334   .     S
Au19   S27     2.356   .     S
Au20   S27     2.356   .     S
Au20   S24     2.334   .     S
Au21   S28     2.376   .     S
Au21   S25     2.352   .     S
S28    Au37    2.366   .     S
Au37   S38     2.331   .     S
