data_11-9
_audit_creation_date              2023-04-12
_audit_creation_method            'Materials Studio'
_symmetry_space_group_name_H-M    'P1'
_symmetry_Int_Tables_number       1
_symmetry_cell_setting            triclinic
loop_
_symmetry_equiv_pos_as_xyz
  x,y,z
_cell_length_a                    20.0000
_cell_length_b                    20.0000
_cell_length_c                    20.0000
_cell_angle_alpha                 90.0000
_cell_angle_beta                  90.0000
_cell_angle_gamma                 90.0000
loop_
_atom_site_label
_atom_site_type_symbol
_atom_site_fract_x
_atom_site_fract_y
_atom_site_fract_z
_atom_site_U_iso_or_equiv
_atom_site_adp_type
_atom_site_occupancy
Au1    Au    0.57568  -0.29112   0.49136   0.00000  Uiso   1.00
Au2    Au    0.36999  -0.37186   0.34688   0.00000  Uiso   1.00
Au3    Au    0.51119  -0.26889   0.33029   0.00000  Uiso   1.00
Au4    Au    0.47139  -0.68590   0.38156   0.00000  Uiso   1.00
Au5    Au    0.66405  -0.53126   0.49145   0.00000  Uiso   1.00
Au6    Au    0.39786  -0.62533   0.52662   0.00000  Uiso   1.00
Au7    Au    0.54196  -0.57803   0.61477   0.00000  Uiso   1.00
S1     S     0.59692  -0.22489   0.39699   0.00000  Uiso   1.00
S2     S     0.42517  -0.31115   0.26295   0.00000  Uiso   1.00
S3     S     0.36244  -0.66662   0.42180   0.00000  Uiso   1.00
S4     S     0.65928  -0.57001   0.60300   0.00000  Uiso   1.00
S5     S     0.42719  -0.59443   0.63646   0.00000  Uiso   1.00
S6     S     0.55538  -0.35707   0.58577   0.00000  Uiso   1.00
S7     S     0.31185  -0.43295   0.42853   0.00000  Uiso   1.00
S8     S     0.57611  -0.70952   0.33351   0.00000  Uiso   1.00
S9     S     0.68342  -0.50432   0.37748   0.00000  Uiso   1.00
Au8    Au    0.41525  -0.48820   0.45030   0.00000  Uiso   1.00
Au9    Au    0.53270  -0.45455   0.52151   0.00000  Uiso   1.00
Au10   Au    0.62546  -0.60514   0.35636   0.00000  Uiso   1.00
Au11   Au    0.52213  -0.56908   0.45243   0.00000  Uiso   1.00
loop_
_geom_bond_atom_site_label_1
_geom_bond_atom_site_label_2
_geom_bond_distance
_geom_bond_site_symmetry_2
_ccdc_geom_bond_type
Au1    S6      2.339   .     S
Au1    S1      2.345   .     S
Au2    S7      2.348   .     S
Au2    S2      2.347   .     S
Au3    S2      2.343   .     S
Au3    S1      2.344   .     S
Au4    S3      2.355   .     S
Au4    S8      2.352   .     S
Au5    S4      2.364   .     S
Au5    S9      2.374   .     S
Au6    S3      2.362   .     S
Au6    S5      2.356   .     S
Au7    S4      2.364   .     S
Au7    S5      2.359   .     S
S6     Au9     2.379   .     S
S7     Au8     2.385   .     S
S8     Au10    2.354   .     S
S9     Au10    2.364   .     S
Au8    Au11    2.681   .     S
Au9    Au11    2.683   .     S
