data_16-12-ch3
_audit_creation_date              2022-11-25
_audit_creation_method            'Materials Studio'
_symmetry_space_group_name_H-M    'P1'
_symmetry_Int_Tables_number       1
_symmetry_cell_setting            triclinic
loop_
_symmetry_equiv_pos_as_xyz
  x,y,z
_cell_length_a                    20.0000
_cell_length_b                    20.0000
_cell_length_c                    20.0000
_cell_angle_alpha                 90.0000
_cell_angle_beta                  90.0000
_cell_angle_gamma                 90.0000
loop_
_atom_site_label
_atom_site_type_symbol
_atom_site_fract_x
_atom_site_fract_y
_atom_site_fract_z
_atom_site_U_iso_or_equiv
_atom_site_adp_type
_atom_site_occupancy
Au1    Au    0.43102  -0.68314   0.38398   0.00000  Uiso   1.00
Au2    Au    0.35472  -0.52402   0.33033   0.00000  Uiso   1.00
Au3    Au    0.52313  -0.53043   0.37386   0.00000  Uiso   1.00
Au4    Au    0.56568  -0.56263   0.49779   0.00000  Uiso   1.00
Au5    Au    0.60508  -0.68391   0.42307   0.00000  Uiso   1.00
Au6    Au    0.48821  -0.44956   0.53379   0.00000  Uiso   1.00
Au7    Au    0.69409  -0.52339   0.41328   0.00000  Uiso   1.00
Au8    Au    0.53988  -0.37644   0.28632   0.00000  Uiso   1.00
Au9    Au    0.57716  -0.40121   0.43453   0.00000  Uiso   1.00
Au10   Au    0.33671  -0.46069   0.56590   0.00000  Uiso   1.00
Au11   Au    0.42834  -0.56072   0.46678   0.00000  Uiso   1.00
Au12   Au    0.49612  -0.31425   0.51376   0.00000  Uiso   1.00
Au13   Au    0.58416  -0.47751   0.64488   0.00000  Uiso   1.00
Au14   Au    0.52580  -0.22457   0.39776   0.00000  Uiso   1.00
Au15   Au    0.44116  -0.39979   0.41151   0.00000  Uiso   1.00
Au16   Au    0.44878  -0.36224   0.64813   0.00000  Uiso   1.00
S1     S     0.35050  -0.64013   0.31027   0.00000  Uiso   1.00
S2     S     0.33887  -0.34981   0.60627   0.00000  Uiso   1.00
S3     S     0.69646  -0.40640   0.42583   0.00000  Uiso   1.00
S4     S     0.34858  -0.40643   0.33571   0.00000  Uiso   1.00
S5     S     0.62483  -0.57960   0.60271   0.00000  Uiso   1.00
S6     S     0.32332  -0.57067   0.52693   0.00000  Uiso   1.00
S7     S     0.50656  -0.74013   0.45429   0.00000  Uiso   1.00
S8     S     0.70749  -0.63814   0.38910   0.00000  Uiso   1.00
S9     S     0.51294  -0.19408   0.51159   0.00000  Uiso   1.00
S10    S     0.53673  -0.49152   0.26078   0.00000  Uiso   1.00
S11    S     0.54049  -0.25820   0.28656   0.00000  Uiso   1.00
S12    S     0.55646  -0.37419   0.69483   0.00000  Uiso   1.00
C1     C     0.27148  -0.66385   0.35071   0.00000  Uiso   1.00
C2     C     0.28394  -0.35177   0.67992   0.00000  Uiso   1.00
C3     C     0.72433  -0.39300   0.51235   0.00000  Uiso   1.00
C4     C     0.27466  -0.39010   0.38773   0.00000  Uiso   1.00
C5     C     0.57232  -0.64332   0.64306   0.00000  Uiso   1.00
C6     C     0.34599  -0.62355   0.59848   0.00000  Uiso   1.00
C7     C     0.51492  -0.82316   0.41578   0.00000  Uiso   1.00
C8     C     0.76566  -0.66491   0.45496   0.00000  Uiso   1.00
C9     C     0.42800  -0.15936   0.51675   0.00000  Uiso   1.00
C10    C     0.62297  -0.51218   0.23732   0.00000  Uiso   1.00
C11    C     0.45888  -0.23973   0.24872   0.00000  Uiso   1.00
C12    C     0.54090  -0.39714   0.78247   0.00000  Uiso   1.00
H1     H     0.26649  -0.71855   0.34740   0.00000  Uiso   1.00
H2     H     0.23046  -0.63981   0.32303   0.00000  Uiso   1.00
H3     H     0.27064  -0.64783   0.40326   0.00000  Uiso   1.00
H4     H     0.29535  -0.39426   0.71272   0.00000  Uiso   1.00
H5     H     0.23199  -0.35540   0.66215   0.00000  Uiso   1.00
H6     H     0.29078  -0.30458   0.70737   0.00000  Uiso   1.00
H7     H     0.77746  -0.40698   0.51583   0.00000  Uiso   1.00
H8     H     0.69447  -0.42240   0.54782   0.00000  Uiso   1.00
H9     H     0.71845  -0.33940   0.52331   0.00000  Uiso   1.00
H10    H     0.27714  -0.41737   0.43537   0.00000  Uiso   1.00
H11    H     0.22986  -0.40503   0.35944   0.00000  Uiso   1.00
H12    H     0.27301  -0.33598   0.39764   0.00000  Uiso   1.00
H13    H     0.57964  -0.69051   0.61576   0.00000  Uiso   1.00
H14    H     0.51930  -0.62928   0.64124   0.00000  Uiso   1.00
H15    H     0.58867  -0.64920   0.69529   0.00000  Uiso   1.00
H16    H     0.35209  -0.67494   0.57974   0.00000  Uiso   1.00
H17    H     0.30521  -0.62205   0.63540   0.00000  Uiso   1.00
H18    H     0.39295  -0.60677   0.62138   0.00000  Uiso   1.00
H19    H     0.52536  -0.81938   0.36202   0.00000  Uiso   1.00
H20    H     0.46772  -0.85030   0.42369   0.00000  Uiso   1.00
H21    H     0.55594  -0.84977   0.44098   0.00000  Uiso   1.00
H22    H     0.81391  -0.63999   0.44612   0.00000  Uiso   1.00
H23    H     0.77196  -0.71943   0.45107   0.00000  Uiso   1.00
H24    H     0.74661  -0.65164   0.50474   0.00000  Uiso   1.00
H25    H     0.39264  -0.18835   0.48640   0.00000  Uiso   1.00
H26    H     0.42925  -0.10717   0.49937   0.00000  Uiso   1.00
H27    H     0.41236  -0.16078   0.56949   0.00000  Uiso   1.00
H28    H     0.63436  -0.48748   0.18947   0.00000  Uiso   1.00
H29    H     0.62605  -0.56678   0.23120   0.00000  Uiso   1.00
H30    H     0.65866  -0.49618   0.27593   0.00000  Uiso   1.00
H31    H     0.41831  -0.26519   0.27555   0.00000  Uiso   1.00
H32    H     0.46010  -0.25668   0.19640   0.00000  Uiso   1.00
H33    H     0.45134  -0.18524   0.25030   0.00000  Uiso   1.00
H34    H     0.50409  -0.43767   0.78654   0.00000  Uiso   1.00
H35    H     0.52229  -0.35241   0.80859   0.00000  Uiso   1.00
H36    H     0.58866  -0.41295   0.80476   0.00000  Uiso   1.00
loop_
_geom_bond_atom_site_label_1
_geom_bond_atom_site_label_2
_geom_bond_distance
_geom_bond_site_symmetry_2
_ccdc_geom_bond_type
Au1    S7      2.358   .     S
Au1    S1      2.346   .     S
Au2    S4      2.358   .     S
Au2    S1      2.358   .     S
Au3    Au11    2.723   .     S
Au3    S10     2.407   .     S
Au3    Au4     2.699   .     S
Au4    S5      2.433   .     S
Au5    S7      2.353   .     S
Au5    S8      2.344   .     S
Au6    Au12    2.740   .     S
Au7    S3      2.354   .     S
Au7    S8      2.361   .     S
Au8    S11     2.365   .     S
Au8    S10     2.359   .     S
Au9    Au15    2.759   .     S
Au9    S3      2.395   .     S
Au10   S2      2.360   .     S
Au10   S6      2.349   .     S
Au11   S6      2.429   .     S
Au12   S9      2.427   .     S
Au13   S12     2.361   .     S
Au13   S5      2.354   .     S
Au14   S11     2.342   .     S
Au14   S9      2.371   .     S
Au15   S4      2.397   .     S
Au16   S12     2.360   .     S
Au16   S2      2.365   .     S
S1     C1      1.838   .     S
S2     C2      1.838   .     S
S3     C3      1.838   .     S
S4     C4      1.837   .     S
S5     C5      1.838   .     S
S6     C6      1.836   .     S
S7     C7      1.838   .     S
S8     C8      1.837   .     S
S9     C9      1.838   .     S
S10    C10     1.835   .     S
S11    C11     1.837   .     S
S12    C12     1.838   .     S
C1     H1      1.101   .     S
C1     H3      1.099   .     S
C1     H2      1.100   .     S
C2     H4      1.098   .     S
C2     H5      1.101   .     S
C2     H6      1.100   .     S
C3     H8      1.098   .     S
C3     H7      1.101   .     S
C3     H9      1.101   .     S
C4     H10     1.099   .     S
C4     H11     1.101   .     S
C4     H12     1.101   .     S
C5     H14     1.097   .     S
C5     H15     1.101   .     S
C5     H13     1.100   .     S
C6     H16     1.101   .     S
C6     H17     1.101   .     S
C6     H18     1.098   .     S
C7     H19     1.098   .     S
C7     H21     1.100   .     S
C7     H20     1.100   .     S
C8     H22     1.100   .     S
C8     H23     1.100   .     S
C8     H24     1.099   .     S
C9     H25     1.098   .     S
C9     H26     1.101   .     S
C9     H27     1.101   .     S
C10    H29     1.101   .     S
C10    H30     1.099   .     S
C10    H28     1.101   .     S
C11    H31     1.098   .     S
C11    H33     1.101   .     S
C11    H32     1.100   .     S
C12    H34     1.098   .     S
C12    H35     1.101   .     S
C12    H36     1.101   .     S
