data_20-16-ch3
_audit_creation_date              2022-11-25
_audit_creation_method            'Materials Studio'
_symmetry_space_group_name_H-M    'P1'
_symmetry_Int_Tables_number       1
_symmetry_cell_setting            triclinic
loop_
_symmetry_equiv_pos_as_xyz
  x,y,z
_cell_length_a                    20.0000
_cell_length_b                    20.0000
_cell_length_c                    20.0000
_cell_angle_alpha                 90.0000
_cell_angle_beta                  90.0000
_cell_angle_gamma                 90.0000
loop_
_atom_site_label
_atom_site_type_symbol
_atom_site_fract_x
_atom_site_fract_y
_atom_site_fract_z
_atom_site_U_iso_or_equiv
_atom_site_adp_type
_atom_site_occupancy
Au1    Au    0.47533  -0.18679   0.47506   0.00000  Uiso   1.00
Au2    Au    0.48339  -0.25745   0.66068   0.00000  Uiso   1.00
Au3    Au    0.54102  -0.38589   0.59409   0.00000  Uiso   1.00
Au4    Au    0.57974  -0.54587   0.63329   0.00000  Uiso   1.00
Au5    Au    0.46760  -0.25872   0.28995   0.00000  Uiso   1.00
Au6    Au    0.41078  -0.38741   0.35709   0.00000  Uiso   1.00
Au7    Au    0.37239  -0.54696   0.31954   0.00000  Uiso   1.00
Au8    Au    0.47607  -0.43007   0.47580   0.00000  Uiso   1.00
Au9    Au    0.54269  -0.34923   0.38211   0.00000  Uiso   1.00
Au10   Au    0.40888  -0.34889   0.56882   0.00000  Uiso   1.00
Au11   Au    0.47580  -0.57937   0.47671   0.00000  Uiso   1.00
Au12   Au    0.56828  -0.65522   0.35393   0.00000  Uiso   1.00
Au13   Au    0.38110  -0.65385   0.59913   0.00000  Uiso   1.00
Au14   Au    0.47465  -0.74353   0.47692   0.00000  Uiso   1.00
Au15   Au    0.65736  -0.32702   0.49609   0.00000  Uiso   1.00
Au16   Au    0.52120  -0.41455   0.74441   0.00000  Uiso   1.00
Au17   Au    0.51010  -0.48387   0.34958   0.00000  Uiso   1.00
S1     S     0.65037  -0.29428   0.38330   0.00000  Uiso   1.00
S2     S     0.50998  -0.17019   0.58590   0.00000  Uiso   1.00
S3     S     0.45763  -0.31696   0.75963   0.00000  Uiso   1.00
S4     S     0.66206  -0.37591   0.60269   0.00000  Uiso   1.00
S5     S     0.58408  -0.59104   0.52533   0.00000  Uiso   1.00
S6     S     0.56297  -0.56553   0.27885   0.00000  Uiso   1.00
S7     S     0.57983  -0.74791   0.42506   0.00000  Uiso   1.00
S8     S     0.59156  -0.50879   0.74442   0.00000  Uiso   1.00
Au18   Au    0.29419  -0.32805   0.45440   0.00000  Uiso   1.00
Au19   Au    0.43047  -0.41666   0.20712   0.00000  Uiso   1.00
Au20   Au    0.44242  -0.48301   0.60257   0.00000  Uiso   1.00
S9     S     0.30088  -0.29452   0.56700   0.00000  Uiso   1.00
S10    S     0.44067  -0.17101   0.36411   0.00000  Uiso   1.00
S11    S     0.49351  -0.31880   0.19139   0.00000  Uiso   1.00
S12    S     0.28972  -0.37767   0.34812   0.00000  Uiso   1.00
S13    S     0.36761  -0.59100   0.42796   0.00000  Uiso   1.00
S14    S     0.38946  -0.56418   0.67387   0.00000  Uiso   1.00
S15    S     0.36946  -0.74716   0.52885   0.00000  Uiso   1.00
S16    S     0.36078  -0.51138   0.20789   0.00000  Uiso   1.00
loop_
_geom_bond_atom_site_label_1
_geom_bond_atom_site_label_2
_geom_bond_distance
_geom_bond_site_symmetry_2
_ccdc_geom_bond_type
Au1    S10     2.346   .     S
Au1    S2      2.346   .     S
Au2    S2      2.359   .     S
Au2    S3      2.366   .     S
Au3    S4      2.435   .     S
Au3    Au20    2.773   .     S
Au4    S8      2.355   .     S
Au4    S5      2.342   .     S
Au5    S11     2.366   .     S
Au5    S10     2.359   .     S
Au6    S12     2.436   .     S
Au6    Au17    2.773   .     S
Au7    S16     2.355   .     S
Au7    S13     2.342   .     S
Au9    S1      2.418   .     S
Au10   S9      2.418   .     S
Au11   S5      2.385   .     S
Au11   S13     2.385   .     S
Au12   S7      2.348   .     S
Au12   S6      2.342   .     S
Au13   S15     2.348   .     S
Au13   S14     2.341   .     S
Au14   S15     2.347   .     S
Au14   S7      2.347   .     S
Au15   S4      2.347   .     S
Au15   S1      2.353   .     S
Au16   S8      2.352   .     S
Au16   S3      2.349   .     S
Au17   S6      2.406   .     S
Au18   S12     2.348   .     S
Au18   S9      2.353   .     S
Au19   S16     2.352   .     S
Au19   S11     2.349   .     S
Au20   S14     2.406   .     S
