data_21-15-B-ch3
_audit_creation_date              2022-11-25
_audit_creation_method            'Materials Studio'
_symmetry_space_group_name_H-M    'P1'
_symmetry_Int_Tables_number       1
_symmetry_cell_setting            triclinic
loop_
_symmetry_equiv_pos_as_xyz
  x,y,z
_cell_length_a                    20.0000
_cell_length_b                    20.0000
_cell_length_c                    20.0000
_cell_angle_alpha                 90.0000
_cell_angle_beta                  90.0000
_cell_angle_gamma                 90.0000
loop_
_atom_site_label
_atom_site_type_symbol
_atom_site_fract_x
_atom_site_fract_y
_atom_site_fract_z
_atom_site_U_iso_or_equiv
_atom_site_adp_type
_atom_site_occupancy
Au1    Au    0.59236  -0.44092   0.54597   0.00000  Uiso   1.00
Au2    Au    0.68788  -0.40074   0.67839   0.00000  Uiso   1.00
Au3    Au    0.59563  -0.50627   0.76179   0.00000  Uiso   1.00
Au4    Au    0.50747  -0.52793   0.62248   0.00000  Uiso   1.00
Au5    Au    0.62106  -0.42439   0.38338   0.00000  Uiso   1.00
Au6    Au    0.69676  -0.54248   0.49618   0.00000  Uiso   1.00
Au7    Au    0.58699  -0.65520   0.58078   0.00000  Uiso   1.00
Au8    Au    0.40897  -0.63707   0.56209   0.00000  Uiso   1.00
Au9    Au    0.36593  -0.52548   0.44322   0.00000  Uiso   1.00
Au10   Au    0.45253  -0.43577   0.38561   0.00000  Uiso   1.00
Au11   Au    0.45142  -0.43157   0.53543   0.00000  Uiso   1.00
Au12   Au    0.52043  -0.54251   0.48630   0.00000  Uiso   1.00
Au13   Au    0.60133  -0.63856   0.43058   0.00000  Uiso   1.00
Au14   Au    0.65820  -0.61277   0.28274   0.00000  Uiso   1.00
Au15   Au    0.53619  -0.54616   0.34559   0.00000  Uiso   1.00
Au16   Au    0.39497  -0.53953   0.31158   0.00000  Uiso   1.00
Au17   Au    0.45966  -0.64501   0.41593   0.00000  Uiso   1.00
Au18   Au    0.30257  -0.65572   0.34988   0.00000  Uiso   1.00
Au19   Au    0.25753  -0.48159   0.32868   0.00000  Uiso   1.00
Au20   Au    0.33248  -0.35895   0.43187   0.00000  Uiso   1.00
Au21   Au    0.52437  -0.54521   0.20055   0.00000  Uiso   1.00
S1     S     0.67721  -0.35817   0.56987   0.00000  Uiso   1.00
S2     S     0.69824  -0.45281   0.78346   0.00000  Uiso   1.00
S3     S     0.49293  -0.55737   0.73811   0.00000  Uiso   1.00
S4     S     0.53326  -0.34753   0.36835   0.00000  Uiso   1.00
S5     S     0.71952  -0.48834   0.39392   0.00000  Uiso   1.00
S6     S     0.68991  -0.60018   0.59879   0.00000  Uiso   1.00
S7     S     0.48946  -0.72229   0.57893   0.00000  Uiso   1.00
S8     S     0.31957  -0.56090   0.55049   0.00000  Uiso   1.00
S9     S     0.39003  -0.73183   0.36931   0.00000  Uiso   1.00
S10    S     0.20808  -0.58843   0.32919   0.00000  Uiso   1.00
S11    S     0.29260  -0.36905   0.32128   0.00000  Uiso   1.00
S12    S     0.37118  -0.34190   0.54190   0.00000  Uiso   1.00
S13    S     0.68303  -0.69815   0.36127   0.00000  Uiso   1.00
S14    S     0.64129  -0.52903   0.20082   0.00000  Uiso   1.00
S15    S     0.40827  -0.56316   0.19305   0.00000  Uiso   1.00
loop_
_geom_bond_atom_site_label_1
_geom_bond_atom_site_label_2
_geom_bond_distance
_geom_bond_site_symmetry_2
_ccdc_geom_bond_type
Au1    S1      2.418   .     S
Au1    Au12    2.761   .     S
Au2    S1      2.341   .     S
Au2    S2      2.354   .     S
Au3    S2      2.354   .     S
Au3    S3      2.343   .     S
Au4    Au12    2.751   .     S
Au4    S3      2.404   .     S
Au5    S5      2.358   .     S
Au5    S4      2.353   .     S
Au6    S5      2.359   .     S
Au6    S6      2.358   .     S
Au7    S7      2.368   .     S
Au7    S6      2.362   .     S
Au8    S8      2.360   .     S
Au8    S7      2.369   .     S
Au9    Au10    2.747   .     S
Au9    Au16    2.711   .     S
Au9    S8      2.442   .     S
Au10   S4      2.417   .     S
Au11   S12     2.410   .     S
Au12   Au13    2.748   .     S
Au12   Au17    2.768   .     S
Au13   S13     2.452   .     S
Au14   S14     2.367   .     S
Au14   S13     2.373   .     S
Au16   S15     2.432   .     S
Au17   S9      2.413   .     S
Au18   S10     2.357   .     S
Au18   S9      2.351   .     S
Au19   S11     2.362   .     S
Au19   S10     2.355   .     S
Au20   S11     2.360   .     S
Au20   S12     2.358   .     S
Au21   S15     2.354   .     S
Au21   S14     2.361   .     S
