data_22-16-ch3
_audit_creation_date              2022-11-25
_audit_creation_method            'Materials Studio'
_symmetry_space_group_name_H-M    'P1'
_symmetry_Int_Tables_number       1
_symmetry_cell_setting            triclinic
loop_
_symmetry_equiv_pos_as_xyz
  x,y,z
_cell_length_a                    20.0000
_cell_length_b                    20.0000
_cell_length_c                    20.0000
_cell_angle_alpha                 90.0000
_cell_angle_beta                  90.0000
_cell_angle_gamma                 90.0000
loop_
_atom_site_label
_atom_site_type_symbol
_atom_site_fract_x
_atom_site_fract_y
_atom_site_fract_z
_atom_site_U_iso_or_equiv
_atom_site_adp_type
_atom_site_occupancy
Au1    Au    0.50314   0.45657   0.60850   0.00000  Uiso   1.00
Au2    Au    0.60905   0.61371   0.48004   0.00000  Uiso   1.00
Au3    Au    0.44208   0.44621   0.35818   0.00000  Uiso   1.00
Au4    Au    0.56543   0.47329   0.47629   0.00000  Uiso   1.00
Au5    Au    0.45536   0.38145   0.47785   0.00000  Uiso   1.00
Au6    Au    0.36985   0.53914   0.62859   0.00000  Uiso   1.00
Au7    Au    0.63360   0.50745   0.59663   0.00000  Uiso   1.00
Au8    Au    0.55494   0.37627   0.37684   0.00000  Uiso   1.00
Au9    Au    0.52984   0.58956   0.62256   0.00000  Uiso   1.00
Au10   Au    0.54721   0.56397   0.36206   0.00000  Uiso   1.00
Au11   Au    0.70555   0.64402   0.61404   0.00000  Uiso   1.00
Au12   Au    0.47463   0.28532   0.29190   0.00000  Uiso   1.00
Au13   Au    0.69358   0.39205   0.47609   0.00000  Uiso   1.00
Au14   Au    0.51170   0.72806   0.52745   0.00000  Uiso   1.00
Au15   Au    0.55564   0.43938   0.23665   0.00000  Uiso   1.00
Au16   Au    0.31842   0.45813   0.47500   0.00000  Uiso   1.00
Au17   Au    0.52055   0.71878   0.33365   0.00000  Uiso   1.00
Au18   Au    0.35539   0.29252   0.41472   0.00000  Uiso   1.00
Au19   Au    0.47890   0.47987   0.75382   0.00000  Uiso   1.00
Au20   Au    0.42657   0.59086   0.26677   0.00000  Uiso   1.00
Au21   Au    0.63809   0.54285   0.74396   0.00000  Uiso   1.00
Au22   Au    0.47687   0.58543   0.47732   0.00000  Uiso   1.00
S1     S     0.72275   0.64841   0.49800   0.00000  Uiso   1.00
S2     S     0.44107   0.21814   0.38285   0.00000  Uiso   1.00
S3     S     0.66508   0.32545   0.38230   0.00000  Uiso   1.00
S4     S     0.47437   0.69706   0.63497   0.00000  Uiso   1.00
S5     S     0.55105   0.77979   0.42930   0.00000  Uiso   1.00
S6     S     0.36743   0.51653   0.74373   0.00000  Uiso   1.00
S7     S     0.36297   0.56023   0.51320   0.00000  Uiso   1.00
S8     S     0.26324   0.35843   0.44683   0.00000  Uiso   1.00
S9     S     0.44197   0.35255   0.59485   0.00000  Uiso   1.00
S10    S     0.61002   0.54043   0.26131   0.00000  Uiso   1.00
S11    S     0.58809   0.43985   0.77299   0.00000  Uiso   1.00
S12    S     0.50690   0.34077   0.19359   0.00000  Uiso   1.00
S13    S     0.35317   0.50678   0.30208   0.00000  Uiso   1.00
S14    S     0.73721   0.45131   0.56831   0.00000  Uiso   1.00
S15    S     0.49430   0.67800   0.22626   0.00000  Uiso   1.00
S16    S     0.69307   0.64598   0.73094   0.00000  Uiso   1.00
loop_
_geom_bond_atom_site_label_1
_geom_bond_atom_site_label_2
_geom_bond_distance
_geom_bond_site_symmetry_2
_ccdc_geom_bond_type
Au1    Au9     2.728   .     S
Au1    S9      2.429   .     S
Au2    Au22    2.704   .     S
Au2    S1      2.405   .     S
Au3    S13     2.426   .     S
Au3    Au8     2.682   .     S
Au3    Au5     2.734   .     S
Au5    S9      2.425   .     S
Au6    S7      2.350   .     S
Au6    S6      2.347   .     S
Au7    S14     2.424   .     S
Au7    Au9     2.697   .     S
Au8    S3      2.428   .     S
Au9    S4      2.432   .     S
Au10   S10     2.421   .     S
Au10   Au22    2.734   .     S
Au11   S1      2.348   .     S
Au11   S16     2.352   .     S
Au12   S2      2.359   .     S
Au12   S12     2.348   .     S
Au13   S3      2.370   .     S
Au13   S14     2.360   .     S
Au14   S5      2.354   .     S
Au14   S4      2.359   .     S
Au15   S10     2.347   .     S
Au15   S12     2.362   .     S
Au16   S7      2.355   .     S
Au16   S8      2.348   .     S
Au17   S15     2.357   .     S
Au17   S5      2.350   .     S
Au18   S2      2.357   .     S
Au18   S8      2.355   .     S
Au19   S6      2.356   .     S
Au19   S11     2.357   .     S
Au20   S15     2.351   .     S
Au20   S13     2.341   .     S
Au21   S11     2.362   .     S
Au21   S16     2.352   .     S
Au22   S7      2.441   .     S
