data_23-16-ch3-spin
_audit_creation_date              2022-11-25
_audit_creation_method            'Materials Studio'
_symmetry_space_group_name_H-M    'P1'
_symmetry_Int_Tables_number       1
_symmetry_cell_setting            triclinic
loop_
_symmetry_equiv_pos_as_xyz
  x,y,z
_cell_length_a                    20.0000
_cell_length_b                    20.0000
_cell_length_c                    20.0000
_cell_angle_alpha                 90.0000
_cell_angle_beta                  90.0000
_cell_angle_gamma                 90.0000
loop_
_atom_site_label
_atom_site_type_symbol
_atom_site_fract_x
_atom_site_fract_y
_atom_site_fract_z
_atom_site_U_iso_or_equiv
_atom_site_adp_type
_atom_site_occupancy
Au1    Au    0.47876   0.51696   0.47178   0.00000  Uiso   1.00
Au2    Au    0.61254   0.55987   0.47802   0.00000  Uiso   1.00
Au3    Au    0.57836   0.42794   0.51520   0.00000  Uiso   1.00
Au4    Au    0.57012   0.46665   0.37907   0.00000  Uiso   1.00
Au5    Au    0.42941   0.40813   0.36132   0.00000  Uiso   1.00
Au6    Au    0.51326   0.66919   0.45767   0.00000  Uiso   1.00
Au7    Au    0.49519   0.46254   0.63637   0.00000  Uiso   1.00
Au8    Au    0.54053   0.36221   0.24440   0.00000  Uiso   1.00
Au9    Au    0.52060   0.31086   0.39078   0.00000  Uiso   1.00
Au10   Au    0.64960   0.72481   0.51428   0.00000  Uiso   1.00
Au11   Au    0.63580   0.28059   0.48190   0.00000  Uiso   1.00
Au12   Au    0.41082   0.25423   0.30419   0.00000  Uiso   1.00
S13    S     0.55998   0.55212   0.67882   0.00000  Uiso   1.00
S14    S     0.42399   0.37069   0.61240   0.00000  Uiso   1.00
S15    S     0.62616   0.43594   0.27682   0.00000  Uiso   1.00
S16    S     0.65394   0.35101   0.57395   0.00000  Uiso   1.00
S17    S     0.71203   0.62913   0.48550   0.00000  Uiso   1.00
S18    S     0.60685   0.22270   0.38324   0.00000  Uiso   1.00
S19    S     0.46029   0.28652   0.20200   0.00000  Uiso   1.00
S20    S     0.59762   0.82648   0.54406   0.00000  Uiso   1.00
Au21   Au    0.34401   0.47515   0.47145   0.00000  Uiso   1.00
Au22   Au    0.37734   0.60768   0.43619   0.00000  Uiso   1.00
Au23   Au    0.39294   0.56535   0.57018   0.00000  Uiso   1.00
Au24   Au    0.52915   0.62733   0.58861   0.00000  Uiso   1.00
Au25   Au    0.44341   0.36610   0.49255   0.00000  Uiso   1.00
Au26   Au    0.46065   0.57342   0.31410   0.00000  Uiso   1.00
Au27   Au    0.41774   0.67449   0.70499   0.00000  Uiso   1.00
Au28   Au    0.43595   0.72325   0.55950   0.00000  Uiso   1.00
Au29   Au    0.30671   0.31182   0.43348   0.00000  Uiso   1.00
Au30   Au    0.31856   0.75335   0.47080   0.00000  Uiso   1.00
Au31   Au    0.54431   0.78627   0.64153   0.00000  Uiso   1.00
S32    S     0.39692   0.48333   0.27141   0.00000  Uiso   1.00
S33    S     0.53207   0.66517   0.33755   0.00000  Uiso   1.00
S34    S     0.34169   0.58911   0.67710   0.00000  Uiso   1.00
S35    S     0.30047   0.68401   0.37798   0.00000  Uiso   1.00
S36    S     0.24400   0.40643   0.46530   0.00000  Uiso   1.00
S37    S     0.34848   0.81084   0.56927   0.00000  Uiso   1.00
S38    S     0.49356   0.75665   0.74391   0.00000  Uiso   1.00
S39    S     0.35901   0.21111   0.40123   0.00000  Uiso   1.00
loop_
_geom_bond_atom_site_label_1
_geom_bond_atom_site_label_2
_geom_bond_distance
_geom_bond_site_symmetry_2
_ccdc_geom_bond_type
Au2    S17     2.429   .     S
Au3    S16     2.456   .     S
Au4    S15     2.412   .     S
Au5    Au9     2.731   .     S
Au5    S32     2.432   .     S
Au5    Au25    2.770   .     S
Au6    S33     2.433   .     S
Au6    Au28    2.776   .     S
Au6    Au24    2.768   .     S
Au7    S13     2.368   .     S
Au7    S14     2.373   .     S
Au8    S19     2.363   .     S
Au8    S15     2.351   .     S
Au9    S18     2.471   .     S
Au10   S20     2.360   .     S
Au10   S17     2.356   .     S
Au11   S16     2.346   .     S
Au11   S18     2.360   .     S
Au12   S19     2.361   .     S
Au12   S39     2.363   .     S
S13    Au24    2.429   .     S
S14    Au25    2.430   .     S
S20    Au31    2.363   .     S
Au21   S36     2.430   .     S
Au22   S35     2.460   .     S
Au23   S34     2.418   .     S
Au24   Au28    2.737   .     S
Au26   S32     2.366   .     S
Au26   S33     2.372   .     S
Au27   S34     2.354   .     S
Au27   S38     2.367   .     S
Au28   S37     2.484   .     S
Au29   S36     2.358   .     S
Au29   S39     2.360   .     S
Au30   S35     2.345   .     S
Au30   S37     2.358   .     S
Au31   S38     2.361   .     S
