data_24-20-ch3
_audit_creation_date              2022-11-25
_audit_creation_method            'Materials Studio'
_symmetry_space_group_name_H-M    'P1'
_symmetry_Int_Tables_number       1
_symmetry_cell_setting            triclinic
loop_
_symmetry_equiv_pos_as_xyz
  x,y,z
_cell_length_a                    25.0000
_cell_length_b                    25.0000
_cell_length_c                    25.0000
_cell_angle_alpha                 90.0000
_cell_angle_beta                  90.0000
_cell_angle_gamma                 90.0000
loop_
_atom_site_label
_atom_site_type_symbol
_atom_site_fract_x
_atom_site_fract_y
_atom_site_fract_z
_atom_site_U_iso_or_equiv
_atom_site_adp_type
_atom_site_occupancy
Au1    Au    0.71627  -0.29775   0.50263   0.00000  Uiso   1.00
Au2    Au    0.57848  -0.56376   0.32274   0.00000  Uiso   1.00
Au3    Au    0.55352  -0.41831   0.54225   0.00000  Uiso   1.00
Au4    Au    0.56561  -0.48544   0.42575   0.00000  Uiso   1.00
Au5    Au    0.49908  -0.60538   0.43011   0.00000  Uiso   1.00
Au6    Au    0.61017  -0.33814   0.42792   0.00000  Uiso   1.00
Au7    Au    0.51679  -0.40404   0.36791   0.00000  Uiso   1.00
Au8    Au    0.52877  -0.26144   0.35802   0.00000  Uiso   1.00
Au9    Au    0.67486  -0.43392   0.50704   0.00000  Uiso   1.00
Au10   Au    0.48706  -0.54529   0.52379   0.00000  Uiso   1.00
Au11   Au    0.62084  -0.42104   0.30851   0.00000  Uiso   1.00
Au12   Au    0.64377  -0.21003   0.42461   0.00000  Uiso   1.00
S1     S     0.73431  -0.22828   0.44191   0.00000  Uiso   1.00
S2     S     0.49742  -0.33304   0.30660   0.00000  Uiso   1.00
S3     S     0.65348  -0.51106   0.45790   0.00000  Uiso   1.00
S4     S     0.56890  -0.32982   0.51273   0.00000  Uiso   1.00
S5     S     0.58585  -0.49378   0.26014   0.00000  Uiso   1.00
S6     S     0.55512  -0.18538   0.40668   0.00000  Uiso   1.00
S7     S     0.70180  -0.36538   0.56585   0.00000  Uiso   1.00
S8     S     0.56696  -0.64257   0.37267   0.00000  Uiso   1.00
S9     S     0.53564  -0.49751   0.59080   0.00000  Uiso   1.00
S10    S     0.65798  -0.34331   0.34574   0.00000  Uiso   1.00
S11    S     0.28256  -0.85841   0.41226   0.00000  Uiso   1.00
Au13   Au    0.41203  -0.64016   0.35148   0.00000  Uiso   1.00
Au14   Au    0.47381  -0.50919   0.36629   0.00000  Uiso   1.00
S12    S     0.41089  -0.55495   0.31031   0.00000  Uiso   1.00
Au15   Au    0.38486  -0.48519   0.56301   0.00000  Uiso   1.00
Au16   Au    0.46751  -0.44555   0.45963   0.00000  Uiso   1.00
S13    S     0.39812  -0.40643   0.51356   0.00000  Uiso   1.00
Au17   Au    0.44705  -0.65199   0.51831   0.00000  Uiso   1.00
Au18   Au    0.39686  -0.57055   0.46304   0.00000  Uiso   1.00
Au19   Au    0.27037  -0.77108   0.37930   0.00000  Uiso   1.00
Au20   Au    0.28823  -0.62011   0.38259   0.00000  Uiso   1.00
S14    S     0.25362  -0.69155   0.33223   0.00000  Uiso   1.00
Au21   Au    0.34006  -0.62653   0.57275   0.00000  Uiso   1.00
Au22   Au    0.35456  -0.71400   0.45870   0.00000  Uiso   1.00
S15    S     0.31276  -0.54013   0.42554   0.00000  Uiso   1.00
S16    S     0.29981  -0.70263   0.53513   0.00000  Uiso   1.00
Au23   Au    0.31026  -0.84425   0.50066   0.00000  Uiso   1.00
Au24   Au    0.40652  -0.77853   0.58148   0.00000  Uiso   1.00
S17    S     0.40566  -0.72993   0.38063   0.00000  Uiso   1.00
S18    S     0.33220  -0.83488   0.59152   0.00000  Uiso   1.00
S19    S     0.37644  -0.55641   0.62406   0.00000  Uiso   1.00
S20    S     0.48088  -0.72280   0.57333   0.00000  Uiso   1.00
loop_
_geom_bond_atom_site_label_1
_geom_bond_atom_site_label_2
_geom_bond_distance
_geom_bond_site_symmetry_2
_ccdc_geom_bond_type
Au1    S1      2.350   .     S
Au1    S7      2.343   .     S
Au2    S5      2.355   .     S
Au2    S8      2.350   .     S
Au3    S4      2.364   .     S
Au3    S9      2.365   .     S
Au4    Au7     2.779   .     S
Au4    Au16    2.780   .     S
Au4    S3      2.425   .     S
Au5    S8      2.410   .     S
Au6    S10     2.381   .     S
Au6    S4      2.367   .     S
Au7    S2      2.395   .     S
Au8    S6      2.352   .     S
Au8    S2      2.339   .     S
Au9    S3      2.348   .     S
Au9    S7      2.356   .     S
Au10   S9      2.389   .     S
Au11   S5      2.352   .     S
Au11   S10     2.346   .     S
Au12   S1      2.349   .     S
Au12   S6      2.343   .     S
S11    Au19    2.353   .     S
S11    Au23    2.343   .     S
Au13   S17     2.365   .     S
Au13   S12     2.366   .     S
Au14   S12     2.396   .     S
Au15   S19     2.355   .     S
Au15   S13     2.348   .     S
Au16   S13     2.405   .     S
Au17   Au18    2.762   .     S
Au17   S20     2.396   .     S
Au18   S15     2.424   .     S
Au19   S14     2.348   .     S
Au20   S15     2.351   .     S
Au20   S14     2.350   .     S
Au21   S19     2.355   .     S
Au21   S16     2.349   .     S
Au22   S16     2.368   .     S
Au22   S17     2.367   .     S
Au23   S18     2.349   .     S
Au24   S18     2.345   .     S
Au24   S20     2.332   .     S
