data_25-18-ch3-spin
_audit_creation_date              2022-11-25
_audit_creation_method            'Materials Studio'
_symmetry_space_group_name_H-M    'P1'
_symmetry_Int_Tables_number       1
_symmetry_cell_setting            triclinic
loop_
_symmetry_equiv_pos_as_xyz
  x,y,z
_cell_length_a                    20.0000
_cell_length_b                    20.0000
_cell_length_c                    20.0000
_cell_angle_alpha                 90.0000
_cell_angle_beta                  90.0000
_cell_angle_gamma                 90.0000
loop_
_atom_site_label
_atom_site_type_symbol
_atom_site_fract_x
_atom_site_fract_y
_atom_site_fract_z
_atom_site_U_iso_or_equiv
_atom_site_adp_type
_atom_site_occupancy
Au1    Au    0.49197  -0.50249   0.50847   0.00000  Uiso   1.00
Au2    Au    0.57141  -0.42830   0.60279   0.00000  Uiso   1.00
Au3    Au    0.49023  -0.35944   0.49111   0.00000  Uiso   1.00
Au4    Au    0.41532  -0.42614   0.60400   0.00000  Uiso   1.00
Au5    Au    0.61664  -0.44333   0.46846   0.00000  Uiso   1.00
Au6    Au    0.60857  -0.56961   0.56201   0.00000  Uiso   1.00
Au7    Au    0.73338  -0.45204   0.57475   0.00000  Uiso   1.00
Au8    Au    0.48207  -0.42120   0.74900   0.00000  Uiso   1.00
Au9    Au    0.64384  -0.30042   0.53685   0.00000  Uiso   1.00
Au10   Au    0.33337  -0.51446   0.70706   0.00000  Uiso   1.00
Au11   Au    0.48228  -0.54602   0.64458   0.00000  Uiso   1.00
Au12   Au    0.41570  -0.31503   0.35352   0.00000  Uiso   1.00
Au13   Au    0.34735  -0.29383   0.52003   0.00000  Uiso   1.00
S14    S     0.37250  -0.43852   0.78833   0.00000  Uiso   1.00
S15    S     0.75447  -0.33924   0.54780   0.00000  Uiso   1.00
S16    S     0.49706  -0.62822   0.73456   0.00000  Uiso   1.00
S17    S     0.72463  -0.56608   0.60292   0.00000  Uiso   1.00
S18    S     0.35092  -0.23887   0.41594   0.00000  Uiso   1.00
S19    S     0.70406  -0.41805   0.38522   0.00000  Uiso   1.00
S20    S     0.59315  -0.39477   0.71906   0.00000  Uiso   1.00
S21    S     0.53801  -0.25069   0.52267   0.00000  Uiso   1.00
S22    S     0.33795  -0.33426   0.63030   0.00000  Uiso   1.00
Au32   Au    0.41278  -0.57684   0.41401   0.00000  Uiso   1.00
Au33   Au    0.49400  -0.64571   0.52544   0.00000  Uiso   1.00
Au34   Au    0.56876  -0.57856   0.41260   0.00000  Uiso   1.00
Au35   Au    0.36724  -0.56181   0.54834   0.00000  Uiso   1.00
Au36   Au    0.37537  -0.43571   0.45480   0.00000  Uiso   1.00
Au37   Au    0.25049  -0.55286   0.44261   0.00000  Uiso   1.00
Au38   Au    0.50121  -0.58294   0.26733   0.00000  Uiso   1.00
Au39   Au    0.34006  -0.70458   0.48053   0.00000  Uiso   1.00
Au40   Au    0.65051  -0.49055   0.30947   0.00000  Uiso   1.00
Au41   Au    0.50175  -0.45898   0.37190   0.00000  Uiso   1.00
Au42   Au    0.56820  -0.69004   0.66332   0.00000  Uiso   1.00
Au43   Au    0.63693  -0.71103   0.49668   0.00000  Uiso   1.00
S44    S     0.60995  -0.56381   0.22638   0.00000  Uiso   1.00
S45    S     0.22947  -0.66573   0.46906   0.00000  Uiso   1.00
S46    S     0.48615  -0.37702   0.28177   0.00000  Uiso   1.00
S47    S     0.25912  -0.43887   0.41425   0.00000  Uiso   1.00
S48    S     0.63305  -0.76608   0.60073   0.00000  Uiso   1.00
S49    S     0.28056  -0.58810   0.63199   0.00000  Uiso   1.00
S50    S     0.39100  -0.61175   0.29830   0.00000  Uiso   1.00
S51    S     0.44590  -0.75445   0.49439   0.00000  Uiso   1.00
S52    S     0.64616  -0.67046   0.38643   0.00000  Uiso   1.00
loop_
_geom_bond_atom_site_label_1
_geom_bond_atom_site_label_2
_geom_bond_distance
_geom_bond_site_symmetry_2
_ccdc_geom_bond_type
Au2    S20     2.459   .     S
Au3    S21     2.458   .     S
Au4    S22     2.459   .     S
Au5    S19     2.466   .     S
Au6    S17     2.462   .     S
Au7    S15     2.357   .     S
Au7    S17     2.356   .     S
Au8    S20     2.361   .     S
Au8    S14     2.354   .     S
Au9    S15     2.355   .     S
Au9    S21     2.356   .     S
Au10   S49     2.353   .     S
Au10   S14     2.358   .     S
Au11   S16     2.455   .     S
Au12   S46     2.362   .     S
Au12   S18     2.357   .     S
Au13   S22     2.357   .     S
Au13   S18     2.355   .     S
S16    Au42    2.363   .     S
S19    Au40    2.355   .     S
Au32   S50     2.456   .     S
Au33   S51     2.458   .     S
Au34   S52     2.459   .     S
Au35   S49     2.466   .     S
Au36   S47     2.463   .     S
Au37   S47     2.356   .     S
Au37   S45     2.357   .     S
Au38   S50     2.361   .     S
Au38   S44     2.355   .     S
Au39   S45     2.355   .     S
Au39   S51     2.356   .     S
Au40   S44     2.359   .     S
Au41   S46     2.456   .     S
Au42   S48     2.358   .     S
Au43   S52     2.357   .     S
Au43   S48     2.356   .     S
