data_28-20-A-ch3
_audit_creation_date              2022-11-25
_audit_creation_method            'Materials Studio'
_symmetry_space_group_name_H-M    'P1'
_symmetry_Int_Tables_number       1
_symmetry_cell_setting            triclinic
loop_
_symmetry_equiv_pos_as_xyz
  x,y,z
_cell_length_a                    20.0000
_cell_length_b                    20.0000
_cell_length_c                    20.0000
_cell_angle_alpha                 90.0000
_cell_angle_beta                  90.0000
_cell_angle_gamma                 90.0000
loop_
_atom_site_label
_atom_site_type_symbol
_atom_site_fract_x
_atom_site_fract_y
_atom_site_fract_z
_atom_site_U_iso_or_equiv
_atom_site_adp_type
_atom_site_occupancy
Au1    Au    0.51260  -0.58523   0.19034   0.00000  Uiso   1.00
Au2    Au    0.33673  -0.58344   0.16153   0.00000  Uiso   1.00
S1     S     0.43548  -0.57287   0.09796   0.00000  Uiso   1.00
Au3    Au    0.49382  -0.76855   0.17109   0.00000  Uiso   1.00
Au4    Au    0.65686  -0.42789   0.16199   0.00000  Uiso   1.00
Au5    Au    0.65300  -0.57617   0.20087   0.00000  Uiso   1.00
Au6    Au    0.48068  -0.42515   0.19010   0.00000  Uiso   1.00
S2     S     0.55827  -0.43840   0.09818   0.00000  Uiso   1.00
S3     S     0.59227  -0.80390   0.11747   0.00000  Uiso   1.00
Au7    Au    0.34056  -0.43569   0.20123   0.00000  Uiso   1.00
S4     S     0.25795  -0.39489   0.12171   0.00000  Uiso   1.00
Au8    Au    0.49884  -0.24407   0.17122   0.00000  Uiso   1.00
S5     S     0.40078  -0.20888   0.11674   0.00000  Uiso   1.00
S6     S     0.73386  -0.61689   0.11977   0.00000  Uiso   1.00
Au9    Au    0.48070  -0.58573   0.39439   0.00000  Uiso   1.00
Au10   Au    0.34038  -0.57520   0.38348   0.00000  Uiso   1.00
Au11   Au    0.41803  -0.50546   0.29235   0.00000  Uiso   1.00
Au12   Au    0.41658  -0.64754   0.28794   0.00000  Uiso   1.00
Au13   Au    0.49811  -0.76941   0.41253   0.00000  Uiso   1.00
Au14   Au    0.57655  -0.64812   0.29646   0.00000  Uiso   1.00
Au15   Au    0.65270  -0.43631   0.38462   0.00000  Uiso   1.00
Au16   Au    0.65659  -0.58460   0.42358   0.00000  Uiso   1.00
Au17   Au    0.75287  -0.50645   0.29286   0.00000  Uiso   1.00
Au18   Au    0.51234  -0.42725   0.39475   0.00000  Uiso   1.00
Au19   Au    0.57667  -0.36467   0.28840   0.00000  Uiso   1.00
Au20   Au    0.57639  -0.50626   0.29257   0.00000  Uiso   1.00
S7     S     0.60157  -0.74569   0.36322   0.00000  Uiso   1.00
S8     S     0.39058  -0.74451   0.22066   0.00000  Uiso   1.00
Au21   Au    0.33660  -0.42724   0.42348   0.00000  Uiso   1.00
Au22   Au    0.24025  -0.50538   0.29265   0.00000  Uiso   1.00
S9     S     0.22888  -0.42243   0.37596   0.00000  Uiso   1.00
Au23   Au    0.49239  -0.24182   0.41432   0.00000  Uiso   1.00
Au24   Au    0.41682  -0.36348   0.29710   0.00000  Uiso   1.00
S10    S     0.22890  -0.58781   0.20886   0.00000  Uiso   1.00
S11    S     0.38994  -0.26596   0.36327   0.00000  Uiso   1.00
S12    S     0.76447  -0.58905   0.37645   0.00000  Uiso   1.00
S13    S     0.76461  -0.42369   0.20944   0.00000  Uiso   1.00
S14    S     0.60178  -0.26673   0.22218   0.00000  Uiso   1.00
S15    S     0.25831  -0.61679   0.46298   0.00000  Uiso   1.00
S16    S     0.39917  -0.80432   0.46554   0.00000  Uiso   1.00
S17    S     0.43518  -0.43892   0.48709   0.00000  Uiso   1.00
S18    S     0.55774  -0.57455   0.48708   0.00000  Uiso   1.00
S19    S     0.59044  -0.20730   0.46909   0.00000  Uiso   1.00
S20    S     0.73117  -0.39496   0.46753   0.00000  Uiso   1.00
Au25   Au    0.65725  -0.30356   0.47038   0.00000  Uiso   1.00
Au26   Au    0.65959  -0.70805   0.11639   0.00000  Uiso   1.00
Au27   Au    0.33272  -0.30419   0.11684   0.00000  Uiso   1.00
Au28   Au    0.33244  -0.70803   0.46652   0.00000  Uiso   1.00
loop_
_geom_bond_atom_site_label_1
_geom_bond_atom_site_label_2
_geom_bond_distance
_geom_bond_site_symmetry_2
_ccdc_geom_bond_type
Au1    S1      2.419   .     S
Au1    Au14    2.779   .     S
Au2    S10     2.357   .     S
Au2    S1      2.358   .     S
Au3    S8      2.340   .     S
Au3    S3      2.351   .     S
Au4    S13     2.356   .     S
Au4    S2      2.358   .     S
Au5    Au20    2.769   .     S
Au5    S6      2.431   .     S
Au6    S2      2.420   .     S
Au6    Au24    2.780   .     S
S3     Au26    2.343   .     S
Au7    S4      2.434   .     S
Au7    Au11    2.769   .     S
S4     Au27    2.353   .     S
Au8    S14     2.342   .     S
Au8    S5      2.351   .     S
S5     Au27    2.342   .     S
S6     Au26    2.353   .     S
Au9    Au12    2.776   .     S
Au9    S18     2.421   .     S
Au10   Au11    2.771   .     S
Au10   S15     2.432   .     S
Au12   S8      2.417   .     S
Au13   S7      2.341   .     S
Au13   S16     2.351   .     S
Au14   S7      2.417   .     S
Au15   Au20    2.771   .     S
Au15   S20     2.428   .     S
Au16   S12     2.356   .     S
Au16   S18     2.358   .     S
Au17   S12     2.362   .     S
Au17   S13     2.362   .     S
Au18   S17     2.418   .     S
Au19   S14     2.417   .     S
Au21   S9      2.357   .     S
Au21   S17     2.358   .     S
Au22   S9      2.362   .     S
Au22   S10     2.362   .     S
Au23   S11     2.340   .     S
Au23   S19     2.350   .     S
Au24   S11     2.418   .     S
S15    Au28    2.352   .     S
S16    Au28    2.343   .     S
S19    Au25    2.344   .     S
S20    Au25    2.352   .     S
