data_29-19-ch3
_audit_creation_date              2022-11-25
_audit_creation_method            'Materials Studio'
_symmetry_space_group_name_H-M    'P1'
_symmetry_Int_Tables_number       1
_symmetry_cell_setting            triclinic
loop_
_symmetry_equiv_pos_as_xyz
  x,y,z
_cell_length_a                    20.0000
_cell_length_b                    20.0000
_cell_length_c                    20.0000
_cell_angle_alpha                 90.0000
_cell_angle_beta                  90.0000
_cell_angle_gamma                 90.0000
loop_
_atom_site_label
_atom_site_type_symbol
_atom_site_fract_x
_atom_site_fract_y
_atom_site_fract_z
_atom_site_U_iso_or_equiv
_atom_site_adp_type
_atom_site_occupancy
Au1    Au    1.43563   1.44324   0.43863   0.00000  Uiso   1.00
Au2    Au    1.50725   1.48665   0.30399   0.00000  Uiso   1.00
Au3    Au    1.31623   1.37496   0.42917   0.00000  Uiso   1.00
Au4    Au    1.43893   1.30816   0.40377   0.00000  Uiso   1.00
Au5    Au    1.49734   1.61285   0.35977   0.00000  Uiso   1.00
Au6    Au    1.42794   1.57598   0.48063   0.00000  Uiso   1.00
Au7    Au    1.38857   1.39706   0.30803   0.00000  Uiso   1.00
Au8    Au    1.55697   1.51845   0.45930   0.00000  Uiso   1.00
Au9    Au    1.47905   1.47106   0.56582   0.00000  Uiso   1.00
Au10   Au    1.63927   1.45014   0.27739   0.00000  Uiso   1.00
Au11   Au    1.56967   1.38848   0.38461   0.00000  Uiso   1.00
Au12   Au    1.50857   1.32003   0.53584   0.00000  Uiso   1.00
Au13   Au    1.35121   1.38998   0.59396   0.00000  Uiso   1.00
Au14   Au    1.37629   1.54091   0.34139   0.00000  Uiso   1.00
Au15   Au    1.63637   1.58982   0.33301   0.00000  Uiso   1.00
Au16   Au    1.46709   1.45870   0.15500   0.00000  Uiso   1.00
Au17   Au    1.53256   1.36058   0.25136   0.00000  Uiso   1.00
Au18   Au    1.28616   1.51857   0.48152   0.00000  Uiso   1.00
Au19   Au    1.44497   1.58879   0.22958   0.00000  Uiso   1.00
Au20   Au    1.59121   1.57830   0.20218   0.00000  Uiso   1.00
Au21   Au    1.42446   1.44273   0.73633   0.00000  Uiso   1.00
Au22   Au    1.56735   1.69464   0.26828   0.00000  Uiso   1.00
Au23   Au    1.49564   1.21524   0.29159   0.00000  Uiso   1.00
Au24   Au    1.20821   1.30302   0.55343   0.00000  Uiso   1.00
Au25   Au    1.47222   1.74041   0.41350   0.00000  Uiso   1.00
Au26   Au    1.75717   1.57295   0.24702   0.00000  Uiso   1.00
Au27   Au    1.67933   1.71131   0.16932   0.00000  Uiso   1.00
Au28   Au    1.27143   1.33918   0.72614   0.00000  Uiso   1.00
Au29   Au    1.50315   1.70515   0.12462   0.00000  Uiso   1.00
S1     S     1.66980   1.55759   0.44453   0.00000  Uiso   1.00
S2     S     1.36151   1.41821   0.19129   0.00000  Uiso   1.00
S3     S     1.40896   1.28611   0.58952   0.00000  Uiso   1.00
S4     S     1.20723   1.32613   0.43872   0.00000  Uiso   1.00
S5     S     1.29601   1.49525   0.59676   0.00000  Uiso   1.00
S6     S     1.45956   1.18727   0.39976   0.00000  Uiso   1.00
S7     S     1.51596   1.48765   0.67919   0.00000  Uiso   1.00
S8     S     1.25866   1.54991   0.37127   0.00000  Uiso   1.00
S9     S     1.61362   1.34068   0.48631   0.00000  Uiso   1.00
S10    S     1.40925   1.69444   0.50174   0.00000  Uiso   1.00
S11    S     1.52888   1.25730   0.18699   0.00000  Uiso   1.00
S12    S     1.57177   1.49574   0.11335   0.00000  Uiso   1.00
S13    S     1.39524   1.67101   0.15660   0.00000  Uiso   1.00
S14    S     1.75564   1.45533   0.24814   0.00000  Uiso   1.00
S15    S     1.52843   1.79567   0.32506   0.00000  Uiso   1.00
S16    S     1.33638   1.40116   0.80199   0.00000  Uiso   1.00
S17    S     1.19843   1.26969   0.66571   0.00000  Uiso   1.00
S18    S     1.60649   1.74140   0.08213   0.00000  Uiso   1.00
S19    S     1.76593   1.69049   0.24676   0.00000  Uiso   1.00
loop_
_geom_bond_atom_site_label_1
_geom_bond_atom_site_label_2
_geom_bond_distance
_geom_bond_site_symmetry_2
_ccdc_geom_bond_type
Au1    Au3     2.757   .     S
Au1    Au9     2.745   .     S
Au2    Au17    2.779   .     S
Au2    Au5     2.767   .     S
Au3    S4      2.397   .     S
Au4    S6      2.454   .     S
Au6    S10     2.435   .     S
Au7    S2      2.434   .     S
Au8    S1      2.407   .     S
Au9    S7      2.407   .     S
Au10   S14     2.402   .     S
Au11   S9      2.413   .     S
Au12   S3      2.363   .     S
Au12   S9      2.359   .     S
Au13   S5      2.378   .     S
Au13   S3      2.378   .     S
Au14   S8      2.434   .     S
Au15   Au20    2.778   .     S
Au15   S1      2.416   .     S
Au16   S2      2.375   .     S
Au16   S12     2.372   .     S
Au17   S11     2.435   .     S
Au18   S5      2.360   .     S
Au18   S8      2.357   .     S
Au19   S13     2.413   .     S
Au20   Au22    2.718   .     S
Au20   S12     2.456   .     S
Au21   S7      2.337   .     S
Au21   S16     2.349   .     S
Au22   S15     2.445   .     S
Au23   S11     2.351   .     S
Au23   S6      2.348   .     S
Au24   S4      2.340   .     S
Au24   S17     2.351   .     S
Au25   S15     2.369   .     S
Au25   S10     2.355   .     S
Au26   S19     2.357   .     S
Au26   S14     2.353   .     S
Au27   S18     2.351   .     S
Au27   S19     2.361   .     S
Au28   S17     2.350   .     S
Au28   S16     2.351   .     S
Au29   S13     2.352   .     S
Au29   S18     2.349   .     S
