data_30-22
_audit_creation_date              2023-04-12
_audit_creation_method            'Materials Studio'
_symmetry_space_group_name_H-M    'P1'
_symmetry_Int_Tables_number       1
_symmetry_cell_setting            triclinic
loop_
_symmetry_equiv_pos_as_xyz
  x,y,z
_cell_length_a                    20.0000
_cell_length_b                    20.0000
_cell_length_c                    20.0000
_cell_angle_alpha                 90.0000
_cell_angle_beta                  90.0000
_cell_angle_gamma                 90.0000
loop_
_atom_site_label
_atom_site_type_symbol
_atom_site_fract_x
_atom_site_fract_y
_atom_site_fract_z
_atom_site_U_iso_or_equiv
_atom_site_adp_type
_atom_site_occupancy
Au1    Au    1.55534   0.42012   0.21890   0.00000  Uiso   1.00
Au2    Au    1.33754   0.45198   0.45226   0.00000  Uiso   1.00
Au3    Au    1.55085   0.44324   0.48120   0.00000  Uiso   1.00
Au4    Au    1.30975   0.67792   0.46822   0.00000  Uiso   1.00
Au5    Au    1.53329   0.42202   0.71018   0.00000  Uiso   1.00
Au6    Au    1.68190   0.30711   0.70379   0.00000  Uiso   1.00
Au7    Au    1.42359   0.29203   0.20819   0.00000  Uiso   1.00
Au8    Au    1.64488   0.54948   0.49214   0.00000  Uiso   1.00
Au9    Au    1.66418   0.55017   0.70526   0.00000  Uiso   1.00
Au10   Au    1.55438   0.29207   0.83719   0.00000  Uiso   1.00
Au11   Au    1.44322   0.42343   0.33395   0.00000  Uiso   1.00
Au12   Au    1.68624   0.64614   0.34306   0.00000  Uiso   1.00
Au13   Au    1.42520   0.44123   0.56399   0.00000  Uiso   1.00
Au14   Au    1.63863   0.44771   0.59224   0.00000  Uiso   1.00
Au15   Au    1.65708   0.68133   0.58228   0.00000  Uiso   1.00
Au16   Au    1.53062   0.71380   0.27501   0.00000  Uiso   1.00
Au17   Au    1.29255   0.65952   0.70179   0.00000  Uiso   1.00
Au18   Au    1.44978   0.71779   0.77894   0.00000  Uiso   1.00
Au19   Au    1.29550   0.31161   0.34225   0.00000  Uiso   1.00
Au20   Au    1.31021   0.55244   0.33544   0.00000  Uiso   1.00
Au21   Au    1.33034   0.54792   0.55761   0.00000  Uiso   1.00
Au22   Au    1.42047   0.42057   0.82677   0.00000  Uiso   1.00
S23    S     1.33197   0.23888   0.25824   0.00000  Uiso   1.00
S24    S     1.60978   0.50409   0.27999   0.00000  Uiso   1.00
S25    S     1.41997   0.74103   0.30439   0.00000  Uiso   1.00
S26    S     1.64080   0.68916   0.24336   0.00000  Uiso   1.00
S27    S     1.36687   0.73785   0.55181   0.00000  Uiso   1.00
S28    S     1.58262   0.74598   0.51842   0.00000  Uiso   1.00
S29    S     1.36148   0.49936   0.76296   0.00000  Uiso   1.00
S30    S     1.61184   0.47617   0.78017   0.00000  Uiso   1.00
S31    S     1.56716   0.72141   0.76653   0.00000  Uiso   1.00
S32    S     1.46326   0.33617   0.89583   0.00000  Uiso   1.00
S33    S     1.33382   0.71957   0.79394   0.00000  Uiso   1.00
S34    S     1.51875   0.33094   0.15214   0.00000  Uiso   1.00
S35    S     1.24716   0.37817   0.42484   0.00000  Uiso   1.00
S36    S     1.52154   0.36119   0.39727   0.00000  Uiso   1.00
S37    S     1.23935   0.63127   0.38632   0.00000  Uiso   1.00
S38    S     1.73644   0.61094   0.44283   0.00000  Uiso   1.00
S39    S     1.45548   0.35858   0.64717   0.00000  Uiso   1.00
S40    S     1.72647   0.36978   0.61616   0.00000  Uiso   1.00
S41    S     1.24048   0.61055   0.60877   0.00000  Uiso   1.00
S42    S     1.73676   0.62290   0.64653   0.00000  Uiso   1.00
S43    S     1.64790   0.23821   0.79216   0.00000  Uiso   1.00
Au44   Au    1.53444   0.64915   0.46331   0.00000  Uiso   1.00
Au45   Au    1.43789   0.54305   0.46625   0.00000  Uiso   1.00
Au46   Au    1.42612   0.64193   0.37327   0.00000  Uiso   1.00
Au47   Au    1.53614   0.54681   0.36636   0.00000  Uiso   1.00
S48    S     1.36319   0.47540   0.26440   0.00000  Uiso   1.00
Au49   Au    1.54497   0.63991   0.67895   0.00000  Uiso   1.00
Au50   Au    1.43686   0.54338   0.67906   0.00000  Uiso   1.00
Au51   Au    1.44218   0.64861   0.58359   0.00000  Uiso   1.00
Au52   Au    1.53852   0.54222   0.58285   0.00000  Uiso   1.00
loop_
_geom_bond_atom_site_label_1
_geom_bond_atom_site_label_2
_geom_bond_distance
_geom_bond_site_symmetry_2
_ccdc_geom_bond_type
Au1    S34     2.345   .     S
Au1    S24     2.345   .     S
Au2    S35     2.397   .     S
Au2    Au45    2.724   .     S
Au3    S36     2.420   .     S
Au4    S37     2.353   .     S
Au4    S27     2.353   .     S
Au5    S30     2.367   .     S
Au5    S39     2.371   .     S
Au6    S43     2.342   .     S
Au6    S40     2.332   .     S
Au7    S34     2.342   .     S
Au7    S23     2.343   .     S
Au8    S38     2.416   .     S
Au9    S30     2.352   .     S
Au9    S42     2.367   .     S
Au10   S32     2.340   .     S
Au10   S43     2.339   .     S
Au11   S48     2.362   .     S
Au11   S36     2.368   .     S
Au12   S26     2.354   .     S
Au12   S38     2.342   .     S
Au13   S39     2.422   .     S
Au14   S40     2.397   .     S
Au14   Au52    2.760   .     S
Au15   S42     2.357   .     S
Au15   S28     2.350   .     S
Au16   S25     2.354   .     S
Au16   S26     2.345   .     S
Au17   S33     2.350   .     S
Au17   S41     2.346   .     S
Au18   S33     2.339   .     S
Au18   S31     2.362   .     S
Au19   S23     2.339   .     S
Au19   S35     2.331   .     S
Au20   S48     2.348   .     S
Au20   S37     2.351   .     S
Au21   S41     2.418   .     S
Au22   S32     2.343   .     S
Au22   S29     2.346   .     S
S24    Au47    2.426   .     S
S25    Au46    2.417   .     S
S27    Au51    2.420   .     S
S28    Au44    2.428   .     S
S29    Au50    2.422   .     S
S31    Au49    2.433   .     S
Au45   Au46    2.725   .     S
Au49   Au52    2.744   .     S
