data_2e-16-14
_audit_creation_date              2023-04-12
_audit_creation_method            'Materials Studio'
_symmetry_space_group_name_H-M    'P1'
_symmetry_Int_Tables_number       1
_symmetry_cell_setting            triclinic
loop_
_symmetry_equiv_pos_as_xyz
  x,y,z
_cell_length_a                    20.0000
_cell_length_b                    20.0000
_cell_length_c                    20.0000
_cell_angle_alpha                 90.0000
_cell_angle_beta                  90.0000
_cell_angle_gamma                 90.0000
loop_
_atom_site_label
_atom_site_type_symbol
_atom_site_fract_x
_atom_site_fract_y
_atom_site_fract_z
_atom_site_U_iso_or_equiv
_atom_site_adp_type
_atom_site_occupancy
Au1    Au    0.27895   0.61340   0.49711   0.00000  Uiso   1.00
Au2    Au    0.51946   0.55461   0.32461   0.00000  Uiso   1.00
Au3    Au    0.76596   0.56032   0.32502   0.00000  Uiso   1.00
Au4    Au    0.27737   0.50325   0.61478   0.00000  Uiso   1.00
Au5    Au    0.51146   0.31859   0.58908   0.00000  Uiso   1.00
Au6    Au    0.38728   0.43591   0.33247   0.00000  Uiso   1.00
Au7    Au    0.63564   0.43923   0.31655   0.00000  Uiso   1.00
Au8    Au    0.64086   0.43629   0.57369   0.00000  Uiso   1.00
Au9    Au    0.62830   0.67863   0.56107   0.00000  Uiso   1.00
Au10   Au    0.38901   0.31507   0.46306   0.00000  Uiso   1.00
Au11   Au    0.65302   0.56219   0.44289   0.00000  Uiso   1.00
Au12   Au    0.76733   0.68149   0.45034   0.00000  Uiso   1.00
S13    S     0.58336   0.35490   0.37906   0.00000  Uiso   1.00
S14    S     0.34865   0.62372   0.40408   0.00000  Uiso   1.00
S15    S     0.57783   0.63556   0.38703   0.00000  Uiso   1.00
S16    S     0.84435   0.61038   0.39701   0.00000  Uiso   1.00
S17    S     0.34379   0.40923   0.63407   0.00000  Uiso   1.00
S18    S     0.57380   0.38977   0.65858   0.00000  Uiso   1.00
S19    S     0.56054   0.60595   0.62267   0.00000  Uiso   1.00
S20    S     0.21245   0.59901   0.59313   0.00000  Uiso   1.00
S21    S     0.45489   0.48789   0.25122   0.00000  Uiso   1.00
S22    S     0.69324   0.51337   0.24574   0.00000  Uiso   1.00
S23    S     0.45161   0.23876   0.52710   0.00000  Uiso   1.00
S24    S     0.71992   0.48165   0.49939   0.00000  Uiso   1.00
S25    S     0.69452   0.75661   0.50329   0.00000  Uiso   1.00
Au26   Au    0.52897   0.52976   0.53513   0.00000  Uiso   1.00
Au27   Au    0.42195   0.43882   0.54738   0.00000  Uiso   1.00
Au28   Au    0.42203   0.53647   0.44354   0.00000  Uiso   1.00
Au29   Au    0.50995   0.42902   0.44045   0.00000  Uiso   1.00
S30    S     0.31161   0.38139   0.40412   0.00000  Uiso   1.00
loop_
_geom_bond_atom_site_label_1
_geom_bond_atom_site_label_2
_geom_bond_distance
_geom_bond_site_symmetry_2
_ccdc_geom_bond_type
Au1    S20     2.354   .     S
Au1    S14     2.334   .     S
Au2    S21     2.367   .     S
Au2    S15     2.354   .     S
Au3    S22     2.347   .     S
Au3    S16     2.352   .     S
Au4    S20     2.354   .     S
Au4    S17     2.334   .     S
Au5    S23     2.349   .     S
Au5    S18     2.348   .     S
Au6    S21     2.356   .     S
Au6    S30     2.352   .     S
Au7    S22     2.352   .     S
Au7    S13     2.345   .     S
Au8    S24     2.352   .     S
Au8    S18     2.355   .     S
Au9    S25     2.350   .     S
Au9    S19     2.338   .     S
Au10   S30     2.355   .     S
Au10   S23     2.353   .     S
Au11   S15     2.380   .     S
Au11   S24     2.380   .     S
Au12   S16     2.352   .     S
Au12   S25     2.345   .     S
S13    Au29    2.421   .     S
S14    Au28    2.413   .     S
S17    Au27    2.408   .     S
S19    Au26    2.405   .     S
Au27   Au29    2.777   .     S
Au28   Au29    2.777   .     S
