data_2e-20-18
_audit_creation_date              2023-04-12
_audit_creation_method            'Materials Studio'
_symmetry_space_group_name_H-M    'P1'
_symmetry_Int_Tables_number       1
_symmetry_cell_setting            triclinic
loop_
_symmetry_equiv_pos_as_xyz
  x,y,z
_cell_length_a                    20.0000
_cell_length_b                    20.0000
_cell_length_c                    20.0000
_cell_angle_alpha                 90.0000
_cell_angle_beta                  90.0000
_cell_angle_gamma                 90.0000
loop_
_atom_site_label
_atom_site_type_symbol
_atom_site_fract_x
_atom_site_fract_y
_atom_site_fract_z
_atom_site_U_iso_or_equiv
_atom_site_adp_type
_atom_site_occupancy
Au1    Au    0.38859   0.43243   0.40811   0.00000  Uiso   1.00
Au2    Au    0.36027   0.65648   0.40707   0.00000  Uiso   1.00
Au3    Au    0.61117   0.68674   0.40359   0.00000  Uiso   1.00
Au4    Au    0.37414   0.43836   0.64227   0.00000  Uiso   1.00
Au5    Au    0.39180   0.66281   0.64445   0.00000  Uiso   1.00
Au6    Au    0.59579   0.15483   0.41241   0.00000  Uiso   1.00
Au7    Au    0.50642   0.30188   0.40732   0.00000  Uiso   1.00
Au8    Au    0.48543   0.53389   0.40215   0.00000  Uiso   1.00
Au9    Au    0.50881   0.55975   0.64783   0.00000  Uiso   1.00
Au10   Au    0.48407   0.81281   0.63176   0.00000  Uiso   1.00
Au11   Au    0.50273   0.42726   0.27840   0.00000  Uiso   1.00
Au12   Au    0.48966   0.43296   0.50319   0.00000  Uiso   1.00
Au13   Au    0.50397   0.68894   0.51757   0.00000  Uiso   1.00
Au14   Au    0.48409   0.17919   0.28476   0.00000  Uiso   1.00
Au15   Au    0.38673   0.31955   0.27187   0.00000  Uiso   1.00
Au16   Au    0.36171   0.53463   0.28454   0.00000  Uiso   1.00
Au17   Au    0.36183   0.32590   0.51742   0.00000  Uiso   1.00
Au18   Au    0.61868   0.28999   0.51506   0.00000  Uiso   1.00
Au19   Au    0.39416   0.53755   0.50695   0.00000  Uiso   1.00
Au20   Au    0.59922   0.82599   0.50794   0.00000  Uiso   1.00
S1     S     0.46203   0.26028   0.20307   0.00000  Uiso   1.00
S2     S     0.43128   0.48555   0.20419   0.00000  Uiso   1.00
S3     S     0.42288   0.24055   0.46494   0.00000  Uiso   1.00
S4     S     0.68661   0.20817   0.46420   0.00000  Uiso   1.00
S5     S     0.42000   0.74483   0.45560   0.00000  Uiso   1.00
S6     S     0.68377   0.75904   0.46195   0.00000  Uiso   1.00
S7     S     0.45742   0.47718   0.71462   0.00000  Uiso   1.00
S8     S     0.45339   0.73559   0.71414   0.00000  Uiso   1.00
S9     S     0.30799   0.38108   0.33337   0.00000  Uiso   1.00
S10    S     0.58084   0.35836   0.33387   0.00000  Uiso   1.00
S11    S     0.28360   0.58115   0.35888   0.00000  Uiso   1.00
S12    S     0.54912   0.61333   0.33626   0.00000  Uiso   1.00
S13    S     0.28755   0.39850   0.57309   0.00000  Uiso   1.00
S14    S     0.55591   0.36606   0.57880   0.00000  Uiso   1.00
S15    S     0.32110   0.58770   0.58878   0.00000  Uiso   1.00
S16    S     0.57888   0.63747   0.59359   0.00000  Uiso   1.00
S17    S     0.51565   0.89468   0.55360   0.00000  Uiso   1.00
S18    S     0.50574   0.09629   0.36506   0.00000  Uiso   1.00
loop_
_geom_bond_atom_site_label_1
_geom_bond_atom_site_label_2
_geom_bond_distance
_geom_bond_site_symmetry_2
_ccdc_geom_bond_type
Au1    S9      2.426   .     S
Au1    Au12    2.775   .     S
Au2    S5      2.343   .     S
Au2    S11     2.356   .     S
Au3    S12     2.347   .     S
Au3    S6      2.358   .     S
Au4    S7      2.339   .     S
Au4    S13     2.356   .     S
Au5    S8      2.362   .     S
Au5    S15     2.344   .     S
Au6    S18     2.348   .     S
Au6    S4      2.347   .     S
Au7    S10     2.377   .     S
Au7    S3      2.372   .     S
Au8    S12     2.426   .     S
Au8    Au19    2.780   .     S
Au9    S7      2.360   .     S
Au9    S16     2.357   .     S
Au10   S8      2.340   .     S
Au10   S17     2.350   .     S
Au11   S2      2.367   .     S
Au11   S10     2.360   .     S
Au12   S14     2.415   .     S
Au13   S16     2.370   .     S
Au13   S5      2.368   .     S
Au14   S1      2.344   .     S
Au14   S18     2.349   .     S
Au15   S1      2.360   .     S
Au15   S9      2.347   .     S
Au16   S2      2.341   .     S
Au16   S11     2.349   .     S
Au17   S3      2.347   .     S
Au17   S13     2.357   .     S
Au18   S14     2.349   .     S
Au18   S4      2.357   .     S
Au19   S15     2.412   .     S
Au20   S17     2.348   .     S
Au20   S6      2.345   .     S
