data_30-18-fcc-ch3
_audit_creation_date              2022-11-25
_audit_creation_method            'Materials Studio'
_symmetry_space_group_name_H-M    'P1'
_symmetry_Int_Tables_number       1
_symmetry_cell_setting            triclinic
loop_
_symmetry_equiv_pos_as_xyz
  x,y,z
_cell_length_a                    25.0000
_cell_length_b                    25.0000
_cell_length_c                    25.0000
_cell_angle_alpha                 90.0000
_cell_angle_beta                  90.0000
_cell_angle_gamma                 90.0000
loop_
_atom_site_label
_atom_site_type_symbol
_atom_site_fract_x
_atom_site_fract_y
_atom_site_fract_z
_atom_site_U_iso_or_equiv
_atom_site_adp_type
_atom_site_occupancy
Au1    Au    0.41692  -0.19385   0.53452   0.00000  Uiso   1.00
Au2    Au    0.27486  -0.22891   0.54502   0.00000  Uiso   1.00
Au3    Au    0.36599  -0.30302   0.57294   0.00000  Uiso   1.00
Au4    Au    0.35567  -0.30068   0.46513   0.00000  Uiso   1.00
Au5    Au    0.47260  -0.31120   0.49153   0.00000  Uiso   1.00
Au6    Au    0.46182  -0.30241   0.37130   0.00000  Uiso   1.00
Au7    Au    0.43159  -0.42208   0.33748   0.00000  Uiso   1.00
Au8    Au    0.54003  -0.41730   0.39900   0.00000  Uiso   1.00
Au9    Au    0.53641  -0.39998   0.51617   0.00000  Uiso   1.00
Au10   Au    0.43308  -0.40566   0.44640   0.00000  Uiso   1.00
Au11   Au    0.33445  -0.40197   0.39627   0.00000  Uiso   1.00
Au12   Au    0.32176  -0.39132   0.51719   0.00000  Uiso   1.00
Au13   Au    0.22824  -0.33849   0.46098   0.00000  Uiso   1.00
Au14   Au    0.43132  -0.39406   0.55638   0.00000  Uiso   1.00
Au15   Au    0.43723  -0.38404   0.66831   0.00000  Uiso   1.00
Au16   Au    0.48736  -0.49258   0.58521   0.00000  Uiso   1.00
Au17   Au    0.61240  -0.51839   0.53658   0.00000  Uiso   1.00
Au18   Au    0.59574  -0.51313   0.41690   0.00000  Uiso   1.00
Au19   Au    0.49698  -0.51842   0.25128   0.00000  Uiso   1.00
Au20   Au    0.49565  -0.51571   0.36456   0.00000  Uiso   1.00
Au21   Au    0.38464  -0.50194   0.40430   0.00000  Uiso   1.00
Au22   Au    0.49905  -0.50254   0.47509   0.00000  Uiso   1.00
Au23   Au    0.39249  -0.50297   0.52181   0.00000  Uiso   1.00
Au24   Au    0.46276  -0.59042   0.53044   0.00000  Uiso   1.00
Au25   Au    0.55298  -0.62083   0.45408   0.00000  Uiso   1.00
Au26   Au    0.45240  -0.61285   0.41162   0.00000  Uiso   1.00
Au27   Au    0.66172  -0.62832   0.37410   0.00000  Uiso   1.00
Au28   Au    0.54288  -0.61616   0.34504   0.00000  Uiso   1.00
Au29   Au    0.55967  -0.73113   0.37751   0.00000  Uiso   1.00
Au30   Au    0.45738  -0.71508   0.47413   0.00000  Uiso   1.00
S31    S     0.33410  -0.15700   0.55990   0.00000  Uiso   1.00
S32    S     0.20176  -0.28794   0.53614   0.00000  Uiso   1.00
S33    S     0.24128  -0.38552   0.38005   0.00000  Uiso   1.00
S34    S     0.37367  -0.26793   0.37410   0.00000  Uiso   1.00
S35    S     0.50456  -0.22415   0.51842   0.00000  Uiso   1.00
S36    S     0.38609  -0.30439   0.66815   0.00000  Uiso   1.00
S37    S     0.30116  -0.48147   0.54429   0.00000  Uiso   1.00
S38    S     0.55310  -0.32641   0.36600   0.00000  Uiso   1.00
S39    S     0.44891  -0.43739   0.24367   0.00000  Uiso   1.00
S40    S     0.48770  -0.46365   0.67723   0.00000  Uiso   1.00
S41    S     0.62265  -0.42555   0.55214   0.00000  Uiso   1.00
S42    S     0.35805  -0.59434   0.39898   0.00000  Uiso   1.00
S43    S     0.44092  -0.67964   0.55970   0.00000  Uiso   1.00
S44    S     0.61754  -0.61256   0.52672   0.00000  Uiso   1.00
S45    S     0.68316  -0.53708   0.38357   0.00000  Uiso   1.00
S46    S     0.54828  -0.59781   0.24941   0.00000  Uiso   1.00
S47    S     0.65188  -0.72109   0.36174   0.00000  Uiso   1.00
S48    S     0.46961  -0.75610   0.39009   0.00000  Uiso   1.00
loop_
_geom_bond_atom_site_label_1
_geom_bond_atom_site_label_2
_geom_bond_distance
_geom_bond_site_symmetry_2
_ccdc_geom_bond_type
Au1    S31     2.353   .     S
Au1    S35     2.353   .     S
Au2    S31     2.359   .     S
Au2    S32     2.359   .     S
Au3    S36     2.433   .     S
Au3    Au4     2.708   .     S
Au4    Au12    2.747   .     S
Au4    S34     2.460   .     S
Au5    S35     2.414   .     S
Au6    S38     2.363   .     S
Au6    S34     2.367   .     S
Au7    Au10    2.754   .     S
Au7    S39     2.415   .     S
Au8    S38     2.439   .     S
Au9    S41     2.422   .     S
Au10   Au11    2.767   .     S
Au10   Au14    2.765   .     S
Au11   S33     2.400   .     S
Au12   S37     2.409   .     S
Au13   S32     2.359   .     S
Au13   S33     2.363   .     S
Au15   S36     2.366   .     S
Au15   S40     2.367   .     S
Au16   Au22    2.780   .     S
Au16   S40     2.411   .     S
Au17   S41     2.367   .     S
Au17   S44     2.371   .     S
Au18   S45     2.414   .     S
Au19   S39     2.363   .     S
Au19   S46     2.364   .     S
Au21   S42     2.407   .     S
Au22   Au24    2.750   .     S
Au23   S37     2.412   .     S
Au24   S43     2.410   .     S
Au25   S44     2.438   .     S
Au25   Au28    2.740   .     S
Au25   Au26    2.737   .     S
Au26   S42     2.424   .     S
Au27   S45     2.355   .     S
Au27   S47     2.353   .     S
Au28   S46     2.438   .     S
Au29   S48     2.357   .     S
Au29   S47     2.352   .     S
Au30   S43     2.352   .     S
Au30   S48     2.358   .     S
