data_30-18-hcp-ch3
_audit_creation_date              2022-11-25
_audit_creation_method            'Materials Studio'
_symmetry_space_group_name_H-M    'P1'
_symmetry_Int_Tables_number       1
_symmetry_cell_setting            triclinic
loop_
_symmetry_equiv_pos_as_xyz
  x,y,z
_cell_length_a                    20.0000
_cell_length_b                    30.0000
_cell_length_c                    20.0000
_cell_angle_alpha                 90.0000
_cell_angle_beta                  90.0000
_cell_angle_gamma                 90.0000
loop_
_atom_site_label
_atom_site_type_symbol
_atom_site_fract_x
_atom_site_fract_y
_atom_site_fract_z
_atom_site_U_iso_or_equiv
_atom_site_adp_type
_atom_site_occupancy
Au1    Au    0.56855  -0.46766   0.40211   0.00000  Uiso   1.00
Au2    Au    0.67520  -0.52643   0.40764   0.00000  Uiso   1.00
Au3    Au    0.61846  -0.61244   0.63231   0.00000  Uiso   1.00
Au4    Au    0.51806  -0.38001   0.42310   0.00000  Uiso   1.00
Au5    Au    0.70868  -0.62462   0.48444   0.00000  Uiso   1.00
C1     C     0.82901  -0.55001   0.45728   0.00000  Uiso   1.00
C2     C     0.58149  -0.31277   0.30317   0.00000  Uiso   1.00
C3     C     0.71364  -0.70123   0.60632   0.00000  Uiso   1.00
S1     S     0.76615  -0.57967   0.40712   0.00000  Uiso   1.00
S2     S     0.60686  -0.33183   0.38668   0.00000  Uiso   1.00
S3     S     0.64926  -0.67082   0.55913   0.00000  Uiso   1.00
Au6    Au    0.58087  -0.53452   0.51424   0.00000  Uiso   1.00
Au7    Au    0.57499  -0.60557   0.42606   0.00000  Uiso   1.00
Au8    Au    0.34976  -0.56642   0.29700   0.00000  Uiso   1.00
Au9    Au    0.55844  -0.50164   0.64604   0.00000  Uiso   1.00
Au10   Au    0.49650  -0.62746   0.27937   0.00000  Uiso   1.00
C4     C     0.52203  -0.70752   0.39205   0.00000  Uiso   1.00
C5     C     0.67887  -0.54322   0.74654   0.00000  Uiso   1.00
C6     C     0.37572  -0.62957   0.16332   0.00000  Uiso   1.00
S4     S     0.57306  -0.66647   0.34675   0.00000  Uiso   1.00
S5     S     0.59560  -0.56077   0.71808   0.00000  Uiso   1.00
S6     S     0.42313  -0.58710   0.20967   0.00000  Uiso   1.00
Au11   Au    0.46861  -0.54249   0.41426   0.00000  Uiso   1.00
Au12   Au    0.55744  -0.53893   0.30781   0.00000  Uiso   1.00
Au13   Au    0.68495  -0.38879   0.36445   0.00000  Uiso   1.00
Au14   Au    0.33676  -0.52793   0.46412   0.00000  Uiso   1.00
Au15   Au    0.70479  -0.48718   0.27400   0.00000  Uiso   1.00
C7     C     0.59213  -0.50471   0.15438   0.00000  Uiso   1.00
C8     C     0.23562  -0.60746   0.40015   0.00000  Uiso   1.00
C9     C     0.81826  -0.40509   0.26934   0.00000  Uiso   1.00
S7     S     0.63689  -0.53853   0.21659   0.00000  Uiso   1.00
S8     S     0.26433  -0.55175   0.37511   0.00000  Uiso   1.00
S9     S     0.77321  -0.43700   0.33369   0.00000  Uiso   1.00
Au16   Au    0.43470  -0.51376   0.55678   0.00000  Uiso   1.00
Au17   Au    0.33004  -0.45349   0.55131   0.00000  Uiso   1.00
Au18   Au    0.38858  -0.37044   0.32720   0.00000  Uiso   1.00
Au19   Au    0.49061  -0.60034   0.54000   0.00000  Uiso   1.00
Au20   Au    0.30060  -0.35569   0.47323   0.00000  Uiso   1.00
C10    C     0.17801  -0.42911   0.49741   0.00000  Uiso   1.00
C11    C     0.42702  -0.66168   0.66596   0.00000  Uiso   1.00
C12    C     0.29677  -0.27964   0.35133   0.00000  Uiso   1.00
S10    S     0.23975  -0.39970   0.54923   0.00000  Uiso   1.00
S11    S     0.40244  -0.64767   0.57999   0.00000  Uiso   1.00
S12    S     0.36109  -0.31016   0.39847   0.00000  Uiso   1.00
Au21   Au    0.42617  -0.44567   0.44541   0.00000  Uiso   1.00
Au22   Au    0.43192  -0.37567   0.53550   0.00000  Uiso   1.00
Au23   Au    0.65278  -0.41428   0.66120   0.00000  Uiso   1.00
Au24   Au    0.44380  -0.48235   0.31506   0.00000  Uiso   1.00
Au25   Au    0.50901  -0.35554   0.68304   0.00000  Uiso   1.00
C13    C     0.48548  -0.27421   0.57172   0.00000  Uiso   1.00
C14    C     0.32061  -0.44021   0.21864   0.00000  Uiso   1.00
C15    C     0.62866  -0.35617   0.80038   0.00000  Uiso   1.00
S13    S     0.43368  -0.31535   0.61591   0.00000  Uiso   1.00
S14    S     0.40582  -0.42373   0.24243   0.00000  Uiso   1.00
S15    S     0.58108  -0.39763   0.75208   0.00000  Uiso   1.00
Au26   Au    0.53710  -0.43995   0.54770   0.00000  Uiso   1.00
Au27   Au    0.44724  -0.44330   0.65292   0.00000  Uiso   1.00
Au28   Au    0.32180  -0.59125   0.59514   0.00000  Uiso   1.00
Au29   Au    0.66740  -0.45071   0.49237   0.00000  Uiso   1.00
Au30   Au    0.30005  -0.49434   0.68314   0.00000  Uiso   1.00
C16    C     0.41073  -0.47795   0.80543   0.00000  Uiso   1.00
C17    C     0.75672  -0.36560   0.55583   0.00000  Uiso   1.00
C18    C     0.18550  -0.57536   0.68649   0.00000  Uiso   1.00
S16    S     0.36664  -0.44368   0.74328   0.00000  Uiso   1.00
S17    S     0.73763  -0.42318   0.58055   0.00000  Uiso   1.00
S18    S     0.23127  -0.54374   0.62234   0.00000  Uiso   1.00
H1     H     0.84750  -0.52196   0.42698   0.00000  Uiso   1.00
H2     H     0.87025  -0.57321   0.46821   0.00000  Uiso   1.00
H3     H     0.80737  -0.53723   0.50394   0.00000  Uiso   1.00
H4     H     0.56483  -0.34074   0.27193   0.00000  Uiso   1.00
H5     H     0.62424  -0.29593   0.27950   0.00000  Uiso   1.00
H6     H     0.54000  -0.28905   0.30971   0.00000  Uiso   1.00
H7     H     0.73622  -0.72601   0.57259   0.00000  Uiso   1.00
H8     H     0.68906  -0.71837   0.64828   0.00000  Uiso   1.00
H9     H     0.75240  -0.67864   0.62529   0.00000  Uiso   1.00
H10    H     0.55405  -0.72248   0.43079   0.00000  Uiso   1.00
H11    H     0.50578  -0.73334   0.35650   0.00000  Uiso   1.00
H12    H     0.47845  -0.69182   0.41570   0.00000  Uiso   1.00
H13    H     0.71001  -0.53216   0.70449   0.00000  Uiso   1.00
H14    H     0.70287  -0.57141   0.77230   0.00000  Uiso   1.00
H15    H     0.67191  -0.51539   0.78175   0.00000  Uiso   1.00
H16    H     0.35559  -0.65519   0.19690   0.00000  Uiso   1.00
H17    H     0.40971  -0.64494   0.12668   0.00000  Uiso   1.00
H18    H     0.33454  -0.61279   0.13692   0.00000  Uiso   1.00
H19    H     0.55009  -0.52484   0.13568   0.00000  Uiso   1.00
H20    H     0.62684  -0.49705   0.11320   0.00000  Uiso   1.00
H21    H     0.57276  -0.47383   0.17657   0.00000  Uiso   1.00
H22    H     0.27756  -0.62845   0.41633   0.00000  Uiso   1.00
H23    H     0.20975  -0.62297   0.35752   0.00000  Uiso   1.00
H24    H     0.20048  -0.60314   0.44201   0.00000  Uiso   1.00
H25    H     0.78413  -0.39289   0.23049   0.00000  Uiso   1.00
H26    H     0.85589  -0.42724   0.24676   0.00000  Uiso   1.00
H27    H     0.84333  -0.37684   0.29388   0.00000  Uiso   1.00
H28    H     0.15476  -0.45503   0.52889   0.00000  Uiso   1.00
H29    H     0.20141  -0.44425   0.45327   0.00000  Uiso   1.00
H30    H     0.13996  -0.40502   0.48124   0.00000  Uiso   1.00
H31    H     0.43989  -0.63167   0.69460   0.00000  Uiso   1.00
H32    H     0.47096  -0.68369   0.66316   0.00000  Uiso   1.00
H33    H     0.38532  -0.67937   0.69017   0.00000  Uiso   1.00
H34    H     0.25964  -0.30236   0.32963   0.00000  Uiso   1.00
H35    H     0.32167  -0.26177   0.31045   0.00000  Uiso   1.00
H36    H     0.27297  -0.25547   0.38548   0.00000  Uiso   1.00
H37    H     0.45404  -0.25891   0.53280   0.00000  Uiso   1.00
H38    H     0.52923  -0.28989   0.54836   0.00000  Uiso   1.00
H39    H     0.50149  -0.24862   0.60775   0.00000  Uiso   1.00
H40    H     0.32504  -0.46766   0.18258   0.00000  Uiso   1.00
H41    H     0.29599  -0.41163   0.19437   0.00000  Uiso   1.00
H42    H     0.29179  -0.45188   0.26207   0.00000  Uiso   1.00
H43    H     0.64875  -0.32989   0.76794   0.00000  Uiso   1.00
H44    H     0.66989  -0.37353   0.82584   0.00000  Uiso   1.00
H45    H     0.59480  -0.34150   0.83778   0.00000  Uiso   1.00
H46    H     0.45290  -0.45808   0.82449   0.00000  Uiso   1.00
H47    H     0.42977  -0.50890   0.78314   0.00000  Uiso   1.00
H48    H     0.37579  -0.48557   0.84644   0.00000  Uiso   1.00
H49    H     0.78989  -0.36704   0.51197   0.00000  Uiso   1.00
H50    H     0.78261  -0.34905   0.59757   0.00000  Uiso   1.00
H51    H     0.71111  -0.34719   0.54281   0.00000  Uiso   1.00
H52    H     0.15976  -0.60326   0.66173   0.00000  Uiso   1.00
H53    H     0.14833  -0.55292   0.70919   0.00000  Uiso   1.00
H54    H     0.21935  -0.58815   0.72517   0.00000  Uiso   1.00
loop_
_geom_bond_atom_site_label_1
_geom_bond_atom_site_label_2
_geom_bond_distance
_geom_bond_site_symmetry_2
_ccdc_geom_bond_type
Au1    Au2     2.770   .     S
Au1    Au29    2.725   .     S
Au2    S1      2.421   .     S
Au3    S5      2.357   .     S
Au3    S3      2.364   .     S
Au4    S2      2.403   .     S
Au4    Au21    2.731   .     S
Au5    S3      2.359   .     S
Au5    S1      2.352   .     S
C1     H1      1.101   .     S
C1     H2      1.101   .     S
C1     S1      1.838   .     S
C1     H3      1.098   .     S
C2     H4      1.098   .     S
C2     H5      1.100   .     S
C2     H6      1.101   .     S
C2     S2      1.837   .     S
C3     H7      1.101   .     S
C3     S3      1.839   .     S
C3     H8      1.100   .     S
C3     H9      1.097   .     S
S2     Au13    2.357   .     S
Au6    Au19    2.725   .     S
Au6    Au7     2.769   .     S
Au7    S4      2.420   .     S
Au8    S6      2.364   .     S
Au8    S8      2.357   .     S
Au9    S5      2.403   .     S
Au9    Au26    2.734   .     S
Au10   S6      2.359   .     S
Au10   S4      2.352   .     S
C4     H10     1.101   .     S
C4     H11     1.101   .     S
C4     H12     1.098   .     S
C4     S4      1.838   .     S
C5     H13     1.098   .     S
C5     S5      1.837   .     S
C5     H14     1.100   .     S
C5     H15     1.101   .     S
C6     H17     1.101   .     S
C6     H16     1.097   .     S
C6     H18     1.100   .     S
C6     S6      1.839   .     S
Au11   Au24    2.727   .     S
Au11   Au12    2.775   .     S
Au12   S7      2.419   .     S
Au13   S9      2.364   .     S
Au14   S8      2.404   .     S
Au14   Au16    2.730   .     S
Au15   S9      2.359   .     S
Au15   S7      2.353   .     S
C7     H19     1.101   .     S
C7     H20     1.101   .     S
C7     H21     1.098   .     S
C7     S7      1.838   .     S
C8     H22     1.098   .     S
C8     H23     1.101   .     S
C8     H24     1.101   .     S
C8     S8      1.837   .     S
C9     H26     1.101   .     S
C9     S9      1.839   .     S
C9     H25     1.097   .     S
C9     H27     1.100   .     S
Au16   Au17    2.768   .     S
Au17   S10     2.422   .     S
Au18   S14     2.356   .     S
Au18   S12     2.367   .     S
Au19   S11     2.401   .     S
Au20   S12     2.359   .     S
Au20   S10     2.353   .     S
C10    H28     1.103   .     S
C10    H30     1.098   .     S
C10    S10     1.838   .     S
C10    H29     1.098   .     S
C11    H31     1.098   .     S
C11    H32     1.101   .     S
C11    H33     1.101   .     S
C11    S11     1.837   .     S
C12    H36     1.104   .     S
C12    S12     1.839   .     S
C12    H34     1.097   .     S
C12    H35     1.097   .     S
S11    Au28    2.357   .     S
Au21   Au22    2.769   .     S
Au22   S13     2.421   .     S
Au23   S15     2.368   .     S
Au23   S17     2.357   .     S
Au24   S14     2.404   .     S
Au25   S15     2.362   .     S
Au25   S13     2.351   .     S
C13    H37     1.101   .     S
C13    H39     1.100   .     S
C13    H38     1.098   .     S
C13    S13     1.838   .     S
C14    H42     1.100   .     S
C14    S14     1.837   .     S
C14    H40     1.098   .     S
C14    H41     1.102   .     S
C15    H45     1.101   .     S
C15    H43     1.097   .     S
C15    H44     1.100   .     S
C15    S15     1.840   .     S
Au26   Au27    2.769   .     S
Au27   S16     2.422   .     S
Au28   S18     2.368   .     S
Au29   S17     2.401   .     S
Au30   S18     2.360   .     S
Au30   S16     2.351   .     S
C16    H46     1.101   .     S
C16    H48     1.101   .     S
C16    H47     1.098   .     S
C16    S16     1.838   .     S
C17    H51     1.098   .     S
C17    H49     1.101   .     S
C17    H50     1.101   .     S
C17    S17     1.837   .     S
C18    H53     1.101   .     S
C18    S18     1.840   .     S
C18    H52     1.100   .     S
C18    H54     1.097   .     S
