data_30-20
_audit_creation_date              2023-04-12
_audit_creation_method            'Materials Studio'
_symmetry_space_group_name_H-M    'P1'
_symmetry_Int_Tables_number       1
_symmetry_cell_setting            triclinic
loop_
_symmetry_equiv_pos_as_xyz
  x,y,z
_cell_length_a                    20.0000
_cell_length_b                    20.0000
_cell_length_c                    20.0000
_cell_angle_alpha                 90.0000
_cell_angle_beta                  90.0000
_cell_angle_gamma                 90.0000
loop_
_atom_site_label
_atom_site_type_symbol
_atom_site_fract_x
_atom_site_fract_y
_atom_site_fract_z
_atom_site_U_iso_or_equiv
_atom_site_adp_type
_atom_site_occupancy
Au1    Au    1.38163   0.39596   0.30544   0.00000  Uiso   1.00
Au2    Au    1.36371   0.43515   0.49259   0.00000  Uiso   1.00
Au3    Au    1.58368   0.41787   0.49617   0.00000  Uiso   1.00
Au4    Au    1.36330   0.65770   0.49998   0.00000  Uiso   1.00
Au5    Au    1.34525   0.59582   0.74622   0.00000  Uiso   1.00
Au6    Au    1.34528   0.28964   0.41294   0.00000  Uiso   1.00
Au7    Au    1.70818   0.25002   0.30089   0.00000  Uiso   1.00
Au8    Au    1.48183   0.49692   0.28212   0.00000  Uiso   1.00
Au9    Au    1.47118   0.32716   0.50356   0.00000  Uiso   1.00
Au10   Au    1.51903   0.63120   0.79267   0.00000  Uiso   1.00
Au11   Au    1.47701   0.27199   0.28617   0.00000  Uiso   1.00
Au12   Au    1.30700   0.49421   0.20371   0.00000  Uiso   1.00
Au13   Au    1.74806   0.37455   0.16997   0.00000  Uiso   1.00
Au14   Au    1.47851   0.41802   0.39832   0.00000  Uiso   1.00
Au15   Au    1.46638   0.43957   0.59238   0.00000  Uiso   1.00
Au16   Au    1.45058   0.33554   0.68523   0.00000  Uiso   1.00
Au17   Au    1.56889   0.31601   0.39868   0.00000  Uiso   1.00
Au18   Au    1.37672   0.52238   0.37353   0.00000  Uiso   1.00
Au19   Au    1.36461   0.53843   0.58799   0.00000  Uiso   1.00
Au20   Au    1.64184   0.65435   0.66585   0.00000  Uiso   1.00
Au21   Au    1.60536   0.40295   0.27200   0.00000  Uiso   1.00
Au22   Au    1.36775   0.66530   0.26475   0.00000  Uiso   1.00
Au23   Au    1.62093   0.50501   0.15269   0.00000  Uiso   1.00
S24    S     1.64055   0.21959   0.39118   0.00000  Uiso   1.00
S25    S     1.66230   0.49319   0.32388   0.00000  Uiso   1.00
S26    S     1.42870   0.72981   0.34220   0.00000  Uiso   1.00
S27    S     1.45080   0.25488   0.59914   0.00000  Uiso   1.00
S28    S     1.66360   0.45084   0.58129   0.00000  Uiso   1.00
S29    S     1.42802   0.71809   0.57901   0.00000  Uiso   1.00
S30    S     1.65673   0.69401   0.55575   0.00000  Uiso   1.00
S31    S     1.44870   0.40952   0.77743   0.00000  Uiso   1.00
S32    S     1.40822   0.65409   0.82606   0.00000  Uiso   1.00
S33    S     1.39791   0.20885   0.34589   0.00000  Uiso   1.00
S34    S     1.77575   0.26714   0.20681   0.00000  Uiso   1.00
S35    S     1.31285   0.37637   0.20815   0.00000  Uiso   1.00
S36    S     1.51235   0.54305   0.17410   0.00000  Uiso   1.00
S37    S     1.27351   0.35448   0.48023   0.00000  Uiso   1.00
S38    S     1.30027   0.61121   0.41055   0.00000  Uiso   1.00
S39    S     1.27449   0.54342   0.66849   0.00000  Uiso   1.00
S40    S     1.63635   0.62757   0.78058   0.00000  Uiso   1.00
S41    S     1.55750   0.31345   0.21131   0.00000  Uiso   1.00
S42    S     1.29667   0.61017   0.18879   0.00000  Uiso   1.00
S43    S     1.73212   0.48106   0.12404   0.00000  Uiso   1.00
Au44   Au    1.57237   0.62446   0.50644   0.00000  Uiso   1.00
Au45   Au    1.46784   0.53492   0.49213   0.00000  Uiso   1.00
Au46   Au    1.48112   0.63743   0.39813   0.00000  Uiso   1.00
Au47   Au    1.57615   0.53267   0.39877   0.00000  Uiso   1.00
Au48   Au    1.47186   0.51124   0.71372   0.00000  Uiso   1.00
Au49   Au    1.47954   0.62060   0.63241   0.00000  Uiso   1.00
Au50   Au    1.57791   0.52586   0.62147   0.00000  Uiso   1.00
loop_
_geom_bond_atom_site_label_1
_geom_bond_atom_site_label_2
_geom_bond_distance
_geom_bond_site_symmetry_2
_ccdc_geom_bond_type
Au1    S35     2.415   .     S
Au1    Au14    2.720   .     S
Au2    S37     2.433   .     S
Au3    S28     2.427   .     S
Au4    S29     2.373   .     S
Au4    S38     2.377   .     S
Au5    S32     2.344   .     S
Au5    S39     2.349   .     S
Au6    S33     2.349   .     S
Au6    S37     2.357   .     S
Au7    S34     2.342   .     S
Au7    S24     2.337   .     S
Au8    S36     2.427   .     S
Au9    S27     2.431   .     S
Au10   S32     2.359   .     S
Au10   S40     2.360   .     S
Au11   S41     2.350   .     S
Au11   S33     2.350   .     S
Au12   S42     2.347   .     S
Au12   S35     2.362   .     S
Au13   S43     2.342   .     S
Au13   S34     2.338   .     S
Au14   Au17    2.726   .     S
Au15   Au45    2.767   .     S
Au16   S27     2.359   .     S
Au16   S31     2.364   .     S
Au17   S24     2.407   .     S
Au18   S38     2.458   .     S
Au19   S39     2.419   .     S
Au20   S30     2.359   .     S
Au20   S40     2.359   .     S
Au21   S41     2.365   .     S
Au21   S25     2.373   .     S
Au22   S42     2.355   .     S
Au22   S26     2.356   .     S
Au23   S36     2.341   .     S
Au23   S43     2.346   .     S
S25    Au47    2.416   .     S
S26    Au46    2.401   .     S
S28    Au50    2.415   .     S
S29    Au49    2.450   .     S
S30    Au44    2.399   .     S
S31    Au48    2.445   .     S
Au44   Au45    2.767   .     S
Au48   Au49    2.730   .     S
Au49   Au50    2.740   .     S
