data_31-21
_audit_creation_date              2023-04-12
_audit_creation_method            'Materials Studio'
_symmetry_space_group_name_H-M    'P1'
_symmetry_Int_Tables_number       1
_symmetry_cell_setting            triclinic
loop_
_symmetry_equiv_pos_as_xyz
  x,y,z
_cell_length_a                    20.0000
_cell_length_b                    20.0000
_cell_length_c                    20.0000
_cell_angle_alpha                 90.0000
_cell_angle_beta                  90.0000
_cell_angle_gamma                 90.0000
loop_
_atom_site_label
_atom_site_type_symbol
_atom_site_fract_x
_atom_site_fract_y
_atom_site_fract_z
_atom_site_U_iso_or_equiv
_atom_site_adp_type
_atom_site_occupancy
Au1    Au    0.56323   1.52198   0.54760   0.00000  Uiso   1.00
Au2    Au    0.69217   1.56988   0.56764   0.00000  Uiso   1.00
Au3    Au    0.63057   1.61576   0.43568   0.00000  Uiso   1.00
Au4    Au    0.58485   1.46667   0.33722   0.00000  Uiso   1.00
Au5    Au    0.64087   1.31940   0.45221   0.00000  Uiso   1.00
Au6    Au    0.51522   1.27485   0.42568   0.00000  Uiso   1.00
Au7    Au    0.42545   1.37432   0.35427   0.00000  Uiso   1.00
Au8    Au    0.53162   1.40664   0.46532   0.00000  Uiso   1.00
Au9    Au    0.43721   1.45387   0.56801   0.00000  Uiso   1.00
Au10   Au    0.60213   1.57218   0.67173   0.00000  Uiso   1.00
Au11   Au    0.64125   1.44286   0.62792   0.00000  Uiso   1.00
Au12   Au    0.74724   1.32983   0.55954   0.00000  Uiso   1.00
Au13   Au    0.39773   1.22930   0.29612   0.00000  Uiso   1.00
Au14   Au    0.32153   1.38844   0.23838   0.00000  Uiso   1.00
Au15   Au    0.31669   1.45141   0.47403   0.00000  Uiso   1.00
Au16   Au    0.35707   1.59517   0.58484   0.00000  Uiso   1.00
Au17   Au    0.39618   1.64321   0.43519   0.00000  Uiso   1.00
Au18   Au    0.50068   1.60415   0.34475   0.00000  Uiso   1.00
Au19   Au    0.46458   1.52550   0.45144   0.00000  Uiso   1.00
Au20   Au    0.37595   1.53269   0.34682   0.00000  Uiso   1.00
Au21   Au    0.52217   1.66818   0.56755   0.00000  Uiso   1.00
Au22   Au    0.27652   1.72449   0.55525   0.00000  Uiso   1.00
Au23   Au    0.36729   1.35845   0.64313   0.00000  Uiso   1.00
Au24   Au    0.49777   1.40168   0.68107   0.00000  Uiso   1.00
Au25   Au    0.37519   1.48658   0.68871   0.00000  Uiso   1.00
Au26   Au    0.26887   1.63124   0.71170   0.00000  Uiso   1.00
Au27   Au    0.57138   1.49161   0.79687   0.00000  Uiso   1.00
Au28   Au    0.44650   1.23028   0.65423   0.00000  Uiso   1.00
Au29   Au    0.55640   1.31989   0.56721   0.00000  Uiso   1.00
Au30   Au    0.65846   1.69507   0.30501   0.00000  Uiso   1.00
Au31   Au    0.77702   1.67397   0.44438   0.00000  Uiso   1.00
S1     S     0.72615   1.36723   0.66789   0.00000  Uiso   1.00
S2     S     0.75933   1.29535   0.44736   0.00000  Uiso   1.00
S3     S     0.46234   1.17727   0.37948   0.00000  Uiso   1.00
S4     S     0.33270   1.27477   0.20931   0.00000  Uiso   1.00
S5     S     0.30275   1.50297   0.25676   0.00000  Uiso   1.00
S6     S     0.33299   1.55740   0.77659   0.00000  Uiso   1.00
S7     S     0.20614   1.70830   0.64842   0.00000  Uiso   1.00
S8     S     0.52864   1.38285   0.79655   0.00000  Uiso   1.00
S9     S     0.61102   1.60251   0.78847   0.00000  Uiso   1.00
S10    S     0.56311   1.22917   0.64645   0.00000  Uiso   1.00
S11    S     0.32923   1.24452   0.66029   0.00000  Uiso   1.00
S12    S     0.34129   1.74720   0.45971   0.00000  Uiso   1.00
S13    S     0.56140   1.65330   0.25369   0.00000  Uiso   1.00
S14    S     0.75683   1.74169   0.35012   0.00000  Uiso   1.00
S15    S     0.80167   1.61083   0.54049   0.00000  Uiso   1.00
S16    S     0.32862   1.34935   0.41803   0.00000  Uiso   1.00
S17    S     0.50531   1.40858   0.27359   0.00000  Uiso   1.00
S18    S     0.60024   1.71506   0.49441   0.00000  Uiso   1.00
S19    S     0.44503   1.64078   0.65115   0.00000  Uiso   1.00
S20    S     0.26913   1.54832   0.52034   0.00000  Uiso   1.00
S21    S     0.67813   1.52870   0.37021   0.00000  Uiso   1.00
loop_
_geom_bond_atom_site_label_1
_geom_bond_atom_site_label_2
_geom_bond_distance
_geom_bond_site_symmetry_2
_ccdc_geom_bond_type
Au1    Au2     2.780   .     S
Au1    Au19    2.756   .     S
Au1    Au11    2.742   .     S
Au2    S15     2.400   .     S
Au2    Au10    2.753   .     S
Au3    S21     2.377   .     S
Au3    S18     2.386   .     S
Au4    S21     2.336   .     S
Au4    S17     2.345   .     S
Au5    Au6     2.719   .     S
Au5    S2      2.419   .     S
Au6    S3      2.404   .     S
Au6    Au8     2.772   .     S
Au7    S16     2.372   .     S
Au7    S17     2.371   .     S
Au8    Au29    2.722   .     S
Au8    Au19    2.743   .     S
Au9    Au24    2.769   .     S
Au10   S9      2.419   .     S
Au11   S1      2.410   .     S
Au12   S2      2.360   .     S
Au12   S1      2.331   .     S
Au13   S4      2.352   .     S
Au13   S3      2.352   .     S
Au14   S5      2.350   .     S
Au14   S4      2.357   .     S
Au15   S20     2.349   .     S
Au15   S16     2.341   .     S
Au16   S20     2.374   .     S
Au16   S19     2.384   .     S
Au17   Au19    2.742   .     S
Au17   S12     2.402   .     S
Au18   Au19    2.748   .     S
Au18   S13     2.400   .     S
Au19   Au20    2.746   .     S
Au20   S5      2.396   .     S
Au21   S18     2.336   .     S
Au21   S19     2.340   .     S
Au22   S12     2.353   .     S
Au22   S7      2.358   .     S
Au23   S11     2.427   .     S
Au23   Au25    2.725   .     S
Au24   S8      2.420   .     S
Au25   S6      2.410   .     S
Au26   S7      2.356   .     S
Au26   S6      2.347   .     S
Au27   S9      2.361   .     S
Au27   S8      2.337   .     S
Au28   S10     2.337   .     S
Au28   S11     2.366   .     S
Au29   S10     2.413   .     S
Au30   S13     2.349   .     S
Au30   S14     2.357   .     S
Au31   S14     2.356   .     S
Au31   S15     2.352   .     S
