data_32-24-ch3
_audit_creation_date              2022-11-25
_audit_creation_method            'Materials Studio'
_symmetry_space_group_name_H-M    'P1'
_symmetry_Int_Tables_number       1
_symmetry_cell_setting            triclinic
loop_
_symmetry_equiv_pos_as_xyz
  x,y,z
_cell_length_a                    20.0000
_cell_length_b                    20.0000
_cell_length_c                    20.0000
_cell_angle_alpha                 90.0000
_cell_angle_beta                  90.0000
_cell_angle_gamma                 90.0000
loop_
_atom_site_label
_atom_site_type_symbol
_atom_site_fract_x
_atom_site_fract_y
_atom_site_fract_z
_atom_site_U_iso_or_equiv
_atom_site_adp_type
_atom_site_occupancy
Au1    Au    0.56785   0.38264   0.18029   0.00000  Uiso   1.00
Au2    Au    0.34094   0.39919   0.41166   0.00000  Uiso   1.00
Au3    Au    0.55747   0.39830   0.43777   0.00000  Uiso   1.00
Au4    Au    0.31302   0.62999   0.42770   0.00000  Uiso   1.00
Au5    Au    0.79785   0.61876   0.42392   0.00000  Uiso   1.00
Au6    Au    0.54478   0.37157   0.66400   0.00000  Uiso   1.00
Au7    Au    0.46113   0.24193   0.18563   0.00000  Uiso   1.00
Au8    Au    0.65050   0.50676   0.44375   0.00000  Uiso   1.00
Au9    Au    0.23100   0.76949   0.43081   0.00000  Uiso   1.00
Au10   Au    0.65556   0.24973   0.61983   0.00000  Uiso   1.00
Au11   Au    0.67844   0.49918   0.65468   0.00000  Uiso   1.00
Au12   Au    0.64519   0.75241   0.64367   0.00000  Uiso   1.00
Au13   Au    0.45326   0.36352   0.29644   0.00000  Uiso   1.00
Au14   Au    0.42979   0.40359   0.52270   0.00000  Uiso   1.00
Au15   Au    0.65183   0.40287   0.54195   0.00000  Uiso   1.00
Au16   Au    0.18616   0.62261   0.52382   0.00000  Uiso   1.00
Au17   Au    0.67266   0.63705   0.52927   0.00000  Uiso   1.00
Au18   Au    0.44802   0.38014   0.79130   0.00000  Uiso   1.00
Au19   Au    0.33715   0.24591   0.31669   0.00000  Uiso   1.00
Au20   Au    0.31985   0.49791   0.29677   0.00000  Uiso   1.00
Au21   Au    0.36224   0.74697   0.31331   0.00000  Uiso   1.00
Au22   Au    0.32916   0.50238   0.51142   0.00000  Uiso   1.00
Au23   Au    0.77952   0.76154   0.52657   0.00000  Uiso   1.00
Au24   Au    0.54496   0.23949   0.75806   0.00000  Uiso   1.00
S25    S     0.40613   0.16968   0.25964   0.00000  Uiso   1.00
S26    S     0.62304   0.45890   0.24921   0.00000  Uiso   1.00
S27    S     0.40503   0.67234   0.23362   0.00000  Uiso   1.00
S28    S     0.13550   0.71688   0.47426   0.00000  Uiso   1.00
S29    S     0.38615   0.68706   0.50220   0.00000  Uiso   1.00
S30    S     0.60879   0.69089   0.44469   0.00000  Uiso   1.00
S31    S     0.86561   0.69723   0.47929   0.00000  Uiso   1.00
S32    S     0.58069   0.17315   0.66815   0.00000  Uiso   1.00
S33    S     0.38657   0.46242   0.73523   0.00000  Uiso   1.00
S34    S     0.63023   0.42238   0.72986   0.00000  Uiso   1.00
S35    S     0.58928   0.67795   0.71476   0.00000  Uiso   1.00
S36    S     0.51613   0.30788   0.10578   0.00000  Uiso   1.00
S37    S     0.26532   0.31096   0.38218   0.00000  Uiso   1.00
S38    S     0.53591   0.30842   0.36171   0.00000  Uiso   1.00
S39    S     0.24930   0.58206   0.33965   0.00000  Uiso   1.00
S40    S     0.73495   0.54026   0.36477   0.00000  Uiso   1.00
S41    S     0.32353   0.82826   0.38871   0.00000  Uiso   1.00
S42    S     0.47167   0.31341   0.59012   0.00000  Uiso   1.00
S43    S     0.73432   0.32034   0.56961   0.00000  Uiso   1.00
S44    S     0.22582   0.52298   0.57124   0.00000  Uiso   1.00
S45    S     0.74842   0.57180   0.59414   0.00000  Uiso   1.00
S46    S     0.69956   0.83181   0.57620   0.00000  Uiso   1.00
S47    S     0.50709   0.29881   0.85219   0.00000  Uiso   1.00
Au48   Au    0.53439   0.60042   0.41867   0.00000  Uiso   1.00
Au49   Au    0.43493   0.50024   0.42079   0.00000  Uiso   1.00
Au50   Au    0.43453   0.59324   0.31897   0.00000  Uiso   1.00
Au51   Au    0.53506   0.49303   0.32441   0.00000  Uiso   1.00
S52    S     0.36901   0.41448   0.22972   0.00000  Uiso   1.00
Au53   Au    0.56084   0.59575   0.63155   0.00000  Uiso   1.00
Au54   Au    0.45913   0.49478   0.64371   0.00000  Uiso   1.00
Au55   Au    0.44811   0.59351   0.54470   0.00000  Uiso   1.00
Au56   Au    0.55020   0.49614   0.53824   0.00000  Uiso   1.00
loop_
_geom_bond_atom_site_label_1
_geom_bond_atom_site_label_2
_geom_bond_distance
_geom_bond_site_symmetry_2
_ccdc_geom_bond_type
Au1    S36     2.351   .     S
Au1    S26     2.333   .     S
Au2    S37     2.398   .     S
Au2    Au49    2.766   .     S
Au3    S38     2.394   .     S
Au4    S39     2.376   .     S
Au4    S29     2.380   .     S
Au5    S31     2.351   .     S
Au5    S40     2.334   .     S
Au6    S34     2.385   .     S
Au6    S42     2.382   .     S
Au7    S36     2.345   .     S
Au7    S25     2.343   .     S
Au8    S40     2.408   .     S
Au8    Au56    2.764   .     S
Au9    S41     2.348   .     S
Au9    S28     2.347   .     S
Au10   S32     2.350   .     S
Au10   S43     2.342   .     S
Au11   S34     2.356   .     S
Au11   S45     2.353   .     S
Au12   S35     2.343   .     S
Au12   S46     2.351   .     S
Au13   S52     2.379   .     S
Au13   S38     2.377   .     S
Au14   S42     2.403   .     S
Au15   S43     2.398   .     S
Au15   Au56    2.760   .     S
Au16   S44     2.345   .     S
Au16   S28     2.359   .     S
Au17   S45     2.384   .     S
Au17   S30     2.378   .     S
Au18   S47     2.351   .     S
Au18   S33     2.340   .     S
Au19   S25     2.351   .     S
Au19   S37     2.339   .     S
Au20   S39     2.358   .     S
Au20   S52     2.356   .     S
Au21   S27     2.345   .     S
Au21   S41     2.349   .     S
Au22   S44     2.424   .     S
Au23   S46     2.349   .     S
Au23   S31     2.348   .     S
Au24   S32     2.346   .     S
Au24   S47     2.351   .     S
S26    Au51    2.413   .     S
S27    Au50    2.401   .     S
S29    Au55    2.400   .     S
S30    Au48    2.400   .     S
S33    Au54    2.424   .     S
S35    Au53    2.407   .     S
Au49   Au50    2.758   .     S
Au53   Au56    2.738   .     S
