data_33-22
_audit_creation_date              2023-04-12
_audit_creation_method            'Materials Studio'
_symmetry_space_group_name_H-M    'P1'
_symmetry_Int_Tables_number       1
_symmetry_cell_setting            triclinic
loop_
_symmetry_equiv_pos_as_xyz
  x,y,z
_cell_length_a                    20.0000
_cell_length_b                    20.0000
_cell_length_c                    20.0000
_cell_angle_alpha                 90.0000
_cell_angle_beta                  90.0000
_cell_angle_gamma                 90.0000
loop_
_atom_site_label
_atom_site_type_symbol
_atom_site_fract_x
_atom_site_fract_y
_atom_site_fract_z
_atom_site_U_iso_or_equiv
_atom_site_adp_type
_atom_site_occupancy
Au1    Au    0.48849   0.45026   0.57142   0.00000  Uiso   1.00
Au2    Au    0.22912   0.55577   0.41469   0.00000  Uiso   1.00
Au3    Au    0.30878   0.52196   0.57235   0.00000  Uiso   1.00
Au4    Au    0.49536   0.53375   0.35433   0.00000  Uiso   1.00
Au5    Au    0.82984   0.56379   0.37926   0.00000  Uiso   1.00
Au6    Au    0.71630   0.61526   0.27396   0.00000  Uiso   1.00
Au7    Au    0.40845   0.35813   0.50212   0.00000  Uiso   1.00
Au8    Au    0.37970   0.62251   0.34588   0.00000  Uiso   1.00
Au9    Au    0.30951   0.66762   0.63095   0.00000  Uiso   1.00
Au10   Au    0.41955   0.37749   0.32136   0.00000  Uiso   1.00
Au11   Au    0.62070   0.37619   0.56148   0.00000  Uiso   1.00
Au12   Au    0.42770   0.59697   0.61595   0.00000  Uiso   1.00
Au13   Au    0.61487   0.66981   0.39593   0.00000  Uiso   1.00
Au14   Au    0.71221   0.40788   0.42020   0.00000  Uiso   1.00
Au15   Au    0.24985   0.50887   0.70376   0.00000  Uiso   1.00
Au16   Au    0.40325   0.50003   0.46138   0.00000  Uiso   1.00
Au17   Au    0.39246   0.48165   0.67851   0.00000  Uiso   1.00
Au18   Au    0.41302   0.52997   0.22245   0.00000  Uiso   1.00
Au19   Au    0.59851   0.53294   0.45415   0.00000  Uiso   1.00
Au20   Au    0.64007   0.49472   0.32526   0.00000  Uiso   1.00
Au21   Au    0.28463   0.51409   0.27891   0.00000  Uiso   1.00
Au22   Au    0.31248   0.34527   0.65167   0.00000  Uiso   1.00
Au23   Au    0.51474   0.41430   0.42913   0.00000  Uiso   1.00
Au24   Au    0.53433   0.60059   0.23223   0.00000  Uiso   1.00
Au25   Au    0.33303   0.62481   0.47493   0.00000  Uiso   1.00
Au26   Au    0.48681   0.33361   0.67177   0.00000  Uiso   1.00
Au27   Au    0.27718   0.41282   0.44839   0.00000  Uiso   1.00
Au28   Au    0.52461   0.43223   0.24534   0.00000  Uiso   1.00
Au29   Au    0.48276   0.62722   0.45628   0.00000  Uiso   1.00
S30    S     0.34259   0.32895   0.40001   0.00000  Uiso   1.00
S31    S     0.34909   0.42780   0.22987   0.00000  Uiso   1.00
S32    S     0.39738   0.28517   0.59509   0.00000  Uiso   1.00
S33    S     0.60212   0.33331   0.44219   0.00000  Uiso   1.00
S34    S     0.60838   0.50960   0.20740   0.00000  Uiso   1.00
S35    S     0.51607   0.31392   0.26840   0.00000  Uiso   1.00
S36    S     0.21818   0.39755   0.69456   0.00000  Uiso   1.00
S37    S     0.25234   0.62060   0.32010   0.00000  Uiso   1.00
S38    S     0.42704   0.65135   0.23554   0.00000  Uiso   1.00
S39    S     0.35301   0.72860   0.53759   0.00000  Uiso   1.00
S40    S     0.40077   0.37985   0.73922   0.00000  Uiso   1.00
S41    S     0.21004   0.48857   0.50931   0.00000  Uiso   1.00
S42    S     0.68203   0.47035   0.51581   0.00000  Uiso   1.00
S43    S     0.45793   0.70403   0.55026   0.00000  Uiso   1.00
S44    S     0.61777   0.67930   0.27795   0.00000  Uiso   1.00
Au45   Au    0.59141   0.61629   0.57041   0.00000  Uiso   1.00
Au46   Au    0.74668   0.63708   0.50004   0.00000  Uiso   1.00
S47    S     0.64636   0.69886   0.50712   0.00000  Uiso   1.00
Au48   Au    0.77476   0.44869   0.28922   0.00000  Uiso   1.00
Au49   Au    0.62659   0.32822   0.30647   0.00000  Uiso   1.00
S50    S     0.74377   0.34014   0.32574   0.00000  Uiso   1.00
S51    S     0.84706   0.58125   0.49144   0.00000  Uiso   1.00
S52    S     0.59037   0.29472   0.63771   0.00000  Uiso   1.00
S53    S     0.26579   0.62157   0.72657   0.00000  Uiso   1.00
S54    S     0.53378   0.54120   0.63987   0.00000  Uiso   1.00
S55    S     0.81733   0.55545   0.26129   0.00000  Uiso   1.00
loop_
_geom_bond_atom_site_label_1
_geom_bond_atom_site_label_2
_geom_bond_distance
_geom_bond_site_symmetry_2
_ccdc_geom_bond_type
Au1    S54     2.450   .     S
Au2    S41     2.352   .     S
Au2    Au25    2.771   .     S
Au2    S37     2.340   .     S
Au3    S41     2.436   .     S
Au4    Au29    2.778   .     S
Au5    S55     2.379   .     S
Au5    S51     2.297   .     S
Au6    S44     2.352   .     S
Au6    S55     2.362   .     S
Au7    S30     2.499   .     S
Au7    S32     2.374   .     S
Au8    S38     2.469   .     S
Au8    Au25    2.745   .     S
Au9    Au12    2.770   .     S
Au9    S39     2.394   .     S
Au9    S53     2.296   .     S
Au10   S30     2.405   .     S
Au10   S31     2.519   .     S
Au10   S35     2.542   .     S
Au11   S52     2.312   .     S
Au11   S42     2.426   .     S
Au11   S33     2.563   .     S
Au12   S43     2.584   .     S
Au12   Au17    2.717   .     S
Au12   S54     2.444   .     S
Au13   S44     2.368   .     S
Au13   S47     2.383   .     S
Au14   S42     2.363   .     S
Au14   S50     2.409   .     S
Au15   S53     2.322   .     S
Au15   S36     2.322   .     S
Au17   S40     2.376   .     S
Au18   S38     2.458   .     S
Au18   S31     2.415   .     S
Au19   S42     2.424   .     S
Au20   S34     2.459   .     S
Au21   S37     2.374   .     S
Au21   S31     2.367   .     S
Au22   S32     2.368   .     S
Au22   S40     2.581   .     S
Au22   S36     2.321   .     S
Au23   S33     2.397   .     S
Au24   S38     2.375   .     S
Au24   S34     2.398   .     S
Au24   S44     2.470   .     S
Au25   S39     2.458   .     S
Au26   S32     2.547   .     S
Au26   S52     2.315   .     S
Au26   S40     2.374   .     S
Au27   S41     2.363   .     S
Au27   S30     2.337   .     S
Au28   S35     2.417   .     S
Au28   S34     2.404   .     S
Au29   S43     2.478   .     S
S35    Au49    2.355   .     S
S39    S43     2.170   .     S
Au45   S54     2.348   .     S
Au45   S47     2.353   .     S
Au46   S47     2.360   .     S
Au46   S51     2.304   .     S
Au48   S50     2.373   .     S
Au48   S55     2.365   .     S
Au49   S50     2.387   .     S
