data_34-22-ch3
_audit_creation_date              2022-11-25
_audit_creation_method            'Materials Studio'
_symmetry_space_group_name_H-M    'P1'
_symmetry_Int_Tables_number       1
_symmetry_cell_setting            triclinic
loop_
_symmetry_equiv_pos_as_xyz
  x,y,z
_cell_length_a                    20.0000
_cell_length_b                    20.0000
_cell_length_c                    20.0000
_cell_angle_alpha                 90.0000
_cell_angle_beta                  90.0000
_cell_angle_gamma                 90.0000
loop_
_atom_site_label
_atom_site_type_symbol
_atom_site_fract_x
_atom_site_fract_y
_atom_site_fract_z
_atom_site_U_iso_or_equiv
_atom_site_adp_type
_atom_site_occupancy
Au1    Au    0.68238  -0.72188   0.69222   0.00000  Uiso   1.00
Au2    Au    0.38107  -0.55127   0.25649   0.00000  Uiso   1.00
Au3    Au    0.50087  -0.74563   0.70311   0.00000  Uiso   1.00
Au4    Au    0.61089  -0.46852   0.57658   0.00000  Uiso   1.00
Au5    Au    0.54460  -0.47124   0.28328   0.00000  Uiso   1.00
Au6    Au    0.74760  -0.56044   0.63036   0.00000  Uiso   1.00
Au7    Au    0.42430  -0.61104   0.61048   0.00000  Uiso   1.00
Au8    Au    0.34152  -0.53022   0.53014   0.00000  Uiso   1.00
Au9    Au    0.26665  -0.60005   0.38975   0.00000  Uiso   1.00
S1     S     0.60156  -0.78576   0.74955   0.00000  Uiso   1.00
Au10   Au    0.57710  -0.50665   0.44274   0.00000  Uiso   1.00
S2     S     0.77944  -0.67279   0.64582   0.00000  Uiso   1.00
S3     S     0.39415  -0.71330   0.66628   0.00000  Uiso   1.00
S4     S     0.72260  -0.44642   0.61871   0.00000  Uiso   1.00
S5     S     0.46215  -0.48675   0.20060   0.00000  Uiso   1.00
S6     S     0.28791  -0.62059   0.27607   0.00000  Uiso   1.00
S7     S     0.63695  -0.44764   0.35258   0.00000  Uiso   1.00
S8     S     0.23093  -0.56796   0.49731   0.00000  Uiso   1.00
Au11   Au    0.47829  -0.49597   0.55126   0.00000  Uiso   1.00
Au12   Au    0.53300  -0.37976   0.49624   0.00000  Uiso   1.00
Au13   Au    0.38544  -0.18592   0.65272   0.00000  Uiso   1.00
Au14   Au    0.51226  -0.20663   0.52213   0.00000  Uiso   1.00
S9     S     0.47570  -0.12878   0.60245   0.00000  Uiso   1.00
Au15   Au    0.53222  -0.44699   0.70623   0.00000  Uiso   1.00
Au16   Au    0.43280  -0.34009   0.60691   0.00000  Uiso   1.00
S10    S     0.55628  -0.27628   0.43889   0.00000  Uiso   1.00
S11    S     0.52598  -0.33131   0.68569   0.00000  Uiso   1.00
Au17   Au    0.43034  -0.51361   0.40780   0.00000  Uiso   1.00
Au18   Au    0.38756  -0.39557   0.48044   0.00000  Uiso   1.00
Au19   Au    0.30975  -0.33853   0.72877   0.00000  Uiso   1.00
Au20   Au    0.38821  -0.47774   0.65407   0.00000  Uiso   1.00
S12    S     0.32016  -0.45392   0.75094   0.00000  Uiso   1.00
Au21   Au    0.52093  -0.62757   0.49622   0.00000  Uiso   1.00
Au22   Au    0.57309  -0.60213   0.63419   0.00000  Uiso   1.00
S13    S     0.29584  -0.22193   0.72022   0.00000  Uiso   1.00
S14    S     0.54800  -0.55702   0.74538   0.00000  Uiso   1.00
Au23   Au    0.65795  -0.61412   0.52601   0.00000  Uiso   1.00
Au24   Au    0.50851  -0.61020   0.35184   0.00000  Uiso   1.00
Au25   Au    0.66442  -0.66714   0.36655   0.00000  Uiso   1.00
S15    S     0.58248  -0.67674   0.28224   0.00000  Uiso   1.00
S16    S     0.74276  -0.66188   0.45387   0.00000  Uiso   1.00
Au26   Au    0.39729  -0.64545   0.43754   0.00000  Uiso   1.00
Au27   Au    0.58394  -0.72640   0.57623   0.00000  Uiso   1.00
Au28   Au    0.46775  -0.79389   0.50046   0.00000  Uiso   1.00
S17    S     0.57536  -0.83553   0.52553   0.00000  Uiso   1.00
S18    S     0.35958  -0.75397   0.48091   0.00000  Uiso   1.00
Au29   Au    0.31127  -0.45284   0.37410   0.00000  Uiso   1.00
Au30   Au    0.29841  -0.36793   0.58354   0.00000  Uiso   1.00
Au31   Au    0.18617  -0.40203   0.46853   0.00000  Uiso   1.00
S19    S     0.17795  -0.37625   0.58312   0.00000  Uiso   1.00
S20    S     0.19641  -0.42466   0.35324   0.00000  Uiso   1.00
Au32   Au    0.36540  -0.25909   0.51840   0.00000  Uiso   1.00
Au33   Au    0.43639  -0.38807   0.34922   0.00000  Uiso   1.00
Au34   Au    0.38644  -0.23378   0.36006   0.00000  Uiso   1.00
S21    S     0.45329  -0.28946   0.28100   0.00000  Uiso   1.00
S22    S     0.31989  -0.17956   0.44049   0.00000  Uiso   1.00
loop_
_geom_bond_atom_site_label_1
_geom_bond_atom_site_label_2
_geom_bond_distance
_geom_bond_site_symmetry_2
_ccdc_geom_bond_type
Au1    S1      2.358   .     S
Au1    S2      2.365   .     S
Au2    S6      2.355   .     S
Au2    S5      2.355   .     S
Au3    S3      2.349   .     S
Au3    S1      2.358   .     S
Au4    Au11    2.755   .     S
Au4    S4      2.428   .     S
Au5    S7      2.357   .     S
Au5    S5      2.356   .     S
Au6    S4      2.346   .     S
Au6    S2      2.356   .     S
Au7    S3      2.407   .     S
Au8    S8      2.428   .     S
Au9    S8      2.356   .     S
Au9    S6      2.349   .     S
Au10   S7      2.465   .     S
Au11   Au20    2.758   .     S
Au12   S10     2.412   .     S
Au13   S9      2.361   .     S
Au13   S13     2.357   .     S
Au14   S10     2.342   .     S
Au14   S9      2.354   .     S
Au15   S11     2.353   .     S
Au15   S14     2.357   .     S
Au16   Au32    2.752   .     S
Au16   S11     2.447   .     S
Au17   Au26    2.783   .     S
Au17   Au33    2.773   .     S
Au17   Au29    2.757   .     S
Au17   Au24    2.725   .     S
Au18   Au30    2.781   .     S
Au19   S13     2.355   .     S
Au19   S12     2.359   .     S
Au20   S12     2.415   .     S
Au21   Au26    2.761   .     S
Au22   Au23    2.760   .     S
Au22   Au27    2.751   .     S
Au22   S14     2.452   .     S
Au23   S16     2.423   .     S
Au24   S15     2.429   .     S
Au25   S15     2.359   .     S
Au25   S16     2.349   .     S
Au26   S18     2.456   .     S
Au27   S17     2.413   .     S
Au28   S18     2.339   .     S
Au28   S17     2.362   .     S
Au29   S20     2.402   .     S
Au30   S19     2.415   .     S
Au31   S20     2.359   .     S
Au31   S19     2.355   .     S
Au32   S22     2.405   .     S
Au33   S21     2.422   .     S
Au34   S21     2.351   .     S
Au34   S22     2.353   .     S
