data_36-24-ch3
_audit_creation_date              2022-11-25
_audit_creation_method            'Materials Studio'
_symmetry_space_group_name_H-M    'P1'
_symmetry_Int_Tables_number       1
_symmetry_cell_setting            triclinic
loop_
_symmetry_equiv_pos_as_xyz
  x,y,z
_cell_length_a                    20.0000
_cell_length_b                    20.0000
_cell_length_c                    20.0000
_cell_angle_alpha                 90.0000
_cell_angle_beta                  90.0000
_cell_angle_gamma                 90.0000
loop_
_atom_site_label
_atom_site_type_symbol
_atom_site_fract_x
_atom_site_fract_y
_atom_site_fract_z
_atom_site_U_iso_or_equiv
_atom_site_adp_type
_atom_site_occupancy
Au1    Au    0.56340  -0.50655   0.53641   0.00000  Uiso   1.00
Au2    Au    0.64649  -0.57347   0.43903   0.00000  Uiso   1.00
Au3    Au    0.64495  -0.43298   0.43621   0.00000  Uiso   1.00
Au4    Au    0.70063  -0.50069   0.54755   0.00000  Uiso   1.00
Au5    Au    0.65821  -0.59360   0.65830   0.00000  Uiso   1.00
Au6    Au    0.64969  -0.41269   0.66016   0.00000  Uiso   1.00
Au7    Au    0.41829  -0.35705   0.51880   0.00000  Uiso   1.00
Au8    Au    0.48163  -0.43877   0.63412   0.00000  Uiso   1.00
Au9    Au    0.48625  -0.25389   0.65346   0.00000  Uiso   1.00
Au10   Au    0.49142  -0.43583   0.42215   0.00000  Uiso   1.00
Au11   Au    0.48659  -0.29875   0.40914   0.00000  Uiso   1.00
Au12   Au    0.55883  -0.35151   0.51981   0.00000  Uiso   1.00
S1     S     0.67196  -0.50301   0.73238   0.00000  Uiso   1.00
S2     S     0.64010  -0.31132   0.60067   0.00000  Uiso   1.00
Au13   Au    0.56259  -0.51038   0.32269   0.00000  Uiso   1.00
Au14   Au    0.74810  -0.49985   0.29911   0.00000  Uiso   1.00
S3     S     0.64801  -0.48348   0.23980   0.00000  Uiso   1.00
Au15   Au    0.39997  -0.35446   0.29516   0.00000  Uiso   1.00
Au16   Au    0.57993  -0.34114   0.29821   0.00000  Uiso   1.00
S4     S     0.85591  -0.51054   0.34501   0.00000  Uiso   1.00
S5     S     0.81719  -0.47743   0.57423   0.00000  Uiso   1.00
S6     S     0.48957  -0.32578   0.22431   0.00000  Uiso   1.00
S7     S     0.50396  -0.35146   0.71631   0.00000  Uiso   1.00
S8     S     0.68120  -0.34848   0.35742   0.00000  Uiso   1.00
Au17   Au    0.42555  -0.66668   0.51807   0.00000  Uiso   1.00
Au18   Au    0.49854  -0.72053   0.41004   0.00000  Uiso   1.00
Au19   Au    0.49281  -0.58334   0.42166   0.00000  Uiso   1.00
Au20   Au    0.56605  -0.66216   0.52126   0.00000  Uiso   1.00
Au21   Au    0.50236  -0.76641   0.65482   0.00000  Uiso   1.00
Au22   Au    0.48715  -0.58098   0.63347   0.00000  Uiso   1.00
Au23   Au    0.27761  -0.51666   0.54445   0.00000  Uiso   1.00
Au24   Au    0.33313  -0.60410   0.65864   0.00000  Uiso   1.00
Au25   Au    0.32500  -0.42393   0.65667   0.00000  Uiso   1.00
Au26   Au    0.33758  -0.58563   0.43554   0.00000  Uiso   1.00
Au27   Au    0.33512  -0.44466   0.43680   0.00000  Uiso   1.00
Au28   Au    0.41526  -0.51205   0.53431   0.00000  Uiso   1.00
S9     S     0.51676  -0.66654   0.71512   0.00000  Uiso   1.00
S10    S     0.65233  -0.69532   0.59912   0.00000  Uiso   1.00
Au29   Au    0.40212  -0.67944   0.29951   0.00000  Uiso   1.00
Au30   Au    0.58163  -0.66381   0.29594   0.00000  Uiso   1.00
S11    S     0.49232  -0.69421   0.22537   0.00000  Uiso   1.00
Au31   Au    0.23388  -0.51891   0.30167   0.00000  Uiso   1.00
Au32   Au    0.42029  -0.50767   0.32348   0.00000  Uiso   1.00
S12    S     0.68381  -0.65076   0.35332   0.00000  Uiso   1.00
S13    S     0.33380  -0.53601   0.24219   0.00000  Uiso   1.00
S14    S     0.30054  -0.51470   0.72780   0.00000  Uiso   1.00
S15    S     0.47037  -0.14737   0.60627   0.00000  Uiso   1.00
S16    S     0.46103  -0.18474   0.37454   0.00000  Uiso   1.00
S17    S     0.33565  -0.32145   0.59977   0.00000  Uiso   1.00
S18    S     0.29772  -0.36516   0.35309   0.00000  Uiso   1.00
S19    S     0.52481  -0.83531   0.37910   0.00000  Uiso   1.00
S20    S     0.49431  -0.87442   0.60876   0.00000  Uiso   1.00
S21    S     0.30096  -0.67202   0.35894   0.00000  Uiso   1.00
S22    S     0.34785  -0.70645   0.60250   0.00000  Uiso   1.00
S23    S     0.12551  -0.50762   0.34635   0.00000  Uiso   1.00
S24    S     0.16245  -0.53768   0.57653   0.00000  Uiso   1.00
Au33   Au    0.14562  -0.51999   0.46116   0.00000  Uiso   1.00
Au34   Au    0.46800  -0.16724   0.49082   0.00000  Uiso   1.00
Au35   Au    0.83425  -0.49706   0.45952   0.00000  Uiso   1.00
Au36   Au    0.50679  -0.85304   0.49414   0.00000  Uiso   1.00
loop_
_geom_bond_atom_site_label_1
_geom_bond_atom_site_label_2
_geom_bond_distance
_geom_bond_site_symmetry_2
_ccdc_geom_bond_type
Au1    Au4     2.756   .     S
Au2    S12     2.426   .     S
Au3    S8      2.422   .     S
Au4    S5      2.436   .     S
Au5    S1      2.357   .     S
Au5    S10     2.357   .     S
Au6    S1      2.355   .     S
Au6    S2      2.359   .     S
Au7    S17     2.421   .     S
Au8    S7      2.439   .     S
Au9    S7      2.348   .     S
Au9    S15     2.352   .     S
Au10   Au11    2.756   .     S
Au11   S16     2.437   .     S
Au12   S2      2.430   .     S
Au13   S3      2.441   .     S
Au14   S3      2.350   .     S
Au14   S4      2.353   .     S
Au15   S6      2.355   .     S
Au15   S18     2.360   .     S
Au16   S6      2.355   .     S
Au16   S8      2.351   .     S
S4     Au35    2.346   .     S
S5     Au35    2.352   .     S
Au17   S22     2.429   .     S
Au18   Au19    2.756   .     S
Au18   S19     2.435   .     S
Au20   S10     2.417   .     S
Au21   S9      2.351   .     S
Au21   S20     2.354   .     S
Au22   S9      2.438   .     S
Au23   S24     2.428   .     S
Au23   Au28    2.762   .     S
Au24   S14     2.353   .     S
Au24   S22     2.353   .     S
Au25   S14     2.358   .     S
Au25   S17     2.354   .     S
Au26   S21     2.423   .     S
Au27   S18     2.427   .     S
Au29   S11     2.354   .     S
Au29   S21     2.351   .     S
Au30   S11     2.356   .     S
Au30   S12     2.358   .     S
Au31   S13     2.351   .     S
Au31   S23     2.355   .     S
Au32   S13     2.441   .     S
S15    Au34    2.343   .     S
S16    Au34    2.356   .     S
S19    Au36    2.356   .     S
S20    Au36    2.345   .     S
S23    Au33    2.344   .     S
S24    Au33    2.359   .     S
