data_37-23-ch3
_audit_creation_date              2022-11-25
_audit_creation_method            'Materials Studio'
_symmetry_space_group_name_H-M    'P1'
_symmetry_Int_Tables_number       1
_symmetry_cell_setting            triclinic
loop_
_symmetry_equiv_pos_as_xyz
  x,y,z
_cell_length_a                    20.0000
_cell_length_b                    20.0000
_cell_length_c                    20.0000
_cell_angle_alpha                 90.0000
_cell_angle_beta                  90.0000
_cell_angle_gamma                 90.0000
loop_
_atom_site_label
_atom_site_type_symbol
_atom_site_fract_x
_atom_site_fract_y
_atom_site_fract_z
_atom_site_U_iso_or_equiv
_atom_site_adp_type
_atom_site_occupancy
Au1    Au    0.48884   0.52881   0.38867   0.00000  Uiso   1.00
Au2    Au    0.41784   0.26100   0.45154   0.00000  Uiso   1.00
Au3    Au    0.49283   0.61419   0.50022   0.00000  Uiso   1.00
Au4    Au    0.50797   0.40689   0.48966   0.00000  Uiso   1.00
Au5    Au    0.39731   0.50183   0.50356   0.00000  Uiso   1.00
Au6    Au    0.59739   0.52663   0.51647   0.00000  Uiso   1.00
Au7    Au    0.59757   0.61265   0.40177   0.00000  Uiso   1.00
Au8    Au    0.47862   0.65909   0.29395   0.00000  Uiso   1.00
Au9    Au    0.40351   0.41634   0.38089   0.00000  Uiso   1.00
Au10   Au    0.37634   0.70532   0.71290   0.00000  Uiso   1.00
Au11   Au    0.23414   0.38827   0.52286   0.00000  Uiso   1.00
Au12   Au    0.36625   0.63660   0.43429   0.00000  Uiso   1.00
Au13   Au    0.62251   0.43064   0.61990   0.00000  Uiso   1.00
Au14   Au    0.43570   0.72234   0.57245   0.00000  Uiso   1.00
Au15   Au    0.47765   0.61245   0.64483   0.00000  Uiso   1.00
Au16   Au    0.60701   0.44296   0.39578   0.00000  Uiso   1.00
Au17   Au    0.72687   0.49477   0.55355   0.00000  Uiso   1.00
Au18   Au    0.75911   0.59666   0.42236   0.00000  Uiso   1.00
Au19   Au    0.64382   0.56945   0.64280   0.00000  Uiso   1.00
Au20   Au    0.23080   0.64356   0.35898   0.00000  Uiso   1.00
Au21   Au    0.54437   0.31508   0.39080   0.00000  Uiso   1.00
Au22   Au    0.33123   0.61249   0.56681   0.00000  Uiso   1.00
Au23   Au    0.47606   0.46547   0.61216   0.00000  Uiso   1.00
Au24   Au    0.60314   0.53933   0.25542   0.00000  Uiso   1.00
Au25   Au    0.57291   0.69455   0.58571   0.00000  Uiso   1.00
Au26   Au    0.63318   0.34673   0.49703   0.00000  Uiso   1.00
Au27   Au    0.47522   0.46163   0.26787   0.00000  Uiso   1.00
Au28   Au    0.75760   0.35826   0.61983   0.00000  Uiso   1.00
Au29   Au    0.27145   0.53910   0.45947   0.00000  Uiso   1.00
Au30   Au    0.36830   0.54017   0.32098   0.00000  Uiso   1.00
Au31   Au    0.39246   0.36781   0.55566   0.00000  Uiso   1.00
Au32   Au    0.28098   0.75505   0.49317   0.00000  Uiso   1.00
Au33   Au    0.75620   0.68096   0.60647   0.00000  Uiso   1.00
Au34   Au    0.55543   0.69790   0.74492   0.00000  Uiso   1.00
Au35   Au    0.51827   0.31390   0.22926   0.00000  Uiso   1.00
Au36   Au    0.52622   0.28338   0.59584   0.00000  Uiso   1.00
Au37   Au    0.80709   0.51875   0.68099   0.00000  Uiso   1.00
S1     S     0.69487   0.66482   0.35080   0.00000  Uiso   1.00
S2     S     0.42946   0.72540   0.37722   0.00000  Uiso   1.00
S3     S     0.26754   0.57845   0.26800   0.00000  Uiso   1.00
S4     S     0.65280   0.63152   0.74647   0.00000  Uiso   1.00
S5     S     0.68448   0.47272   0.30772   0.00000  Uiso   1.00
S6     S     0.73983   0.29632   0.52144   0.00000  Uiso   1.00
S7     S     0.82403   0.52311   0.48752   0.00000  Uiso   1.00
S8     S     0.56492   0.34670   0.68778   0.00000  Uiso   1.00
S9     S     0.33700   0.31577   0.38592   0.00000  Uiso   1.00
S10    S     0.47426   0.51729   0.72144   0.00000  Uiso   1.00
S11    S     0.18413   0.70388   0.44942   0.00000  Uiso   1.00
S12    S     0.37249   0.81730   0.53340   0.00000  Uiso   1.00
S13    S     0.67387   0.75504   0.56816   0.00000  Uiso   1.00
S14    S     0.53083   0.61335   0.19832   0.00000  Uiso   1.00
S15    S     0.49105   0.19913   0.52030   0.00000  Uiso   1.00
S16    S     0.46398   0.77273   0.75449   0.00000  Uiso   1.00
S17    S     0.47349   0.40058   0.16352   0.00000  Uiso   1.00
S18    S     0.77944   0.41223   0.72280   0.00000  Uiso   1.00
S19    S     0.84962   0.62350   0.64934   0.00000  Uiso   1.00
S20    S     0.28732   0.63728   0.67660   0.00000  Uiso   1.00
S21    S     0.56522   0.23506   0.30239   0.00000  Uiso   1.00
S22    S     0.17638   0.46563   0.45582   0.00000  Uiso   1.00
S23    S     0.29132   0.31023   0.59032   0.00000  Uiso   1.00
loop_
_geom_bond_atom_site_label_1
_geom_bond_atom_site_label_2
_geom_bond_distance
_geom_bond_site_symmetry_2
_ccdc_geom_bond_type
Au1    Au30    2.774   .     S
Au1    Au7     2.758   .     S
Au1    Au27    2.778   .     S
Au2    S9      2.353   .     S
Au2    S15     2.359   .     S
Au3    Au6     2.747   .     S
Au4    Au31    2.773   .     S
Au4    Au26    2.782   .     S
Au5    Au29    2.769   .     S
Au5    Au23    2.780   .     S
Au6    Au17    2.768   .     S
Au7    S1      2.432   .     S
Au8    S14     2.363   .     S
Au8    S2      2.345   .     S
Au9    S9      2.413   .     S
Au10   S20     2.355   .     S
Au10   S16     2.363   .     S
Au11   S22     2.351   .     S
Au11   S23     2.359   .     S
Au12   S2      2.461   .     S
Au12   Au29    2.766   .     S
Au13   S8      2.447   .     S
Au14   S12     2.411   .     S
Au14   Au15    2.762   .     S
Au15   S10     2.444   .     S
Au15   Au25    2.779   .     S
Au16   S5      2.420   .     S
Au17   S7      2.417   .     S
Au18   S1      2.358   .     S
Au18   S7      2.355   .     S
Au19   S4      2.424   .     S
Au20   S11     2.366   .     S
Au20   S3      2.355   .     S
Au21   S21     2.421   .     S
Au22   S20     2.417   .     S
Au23   S10     2.419   .     S
Au24   S14     2.364   .     S
Au24   S5      2.349   .     S
Au25   S13     2.380   .     S
Au26   S6      2.409   .     S
Au27   S17     2.418   .     S
Au28   S18     2.366   .     S
Au28   S6      2.352   .     S
Au29   S22     2.404   .     S
Au30   S3      2.402   .     S
Au31   S23     2.429   .     S
Au32   S12     2.355   .     S
Au32   S11     2.359   .     S
Au33   S19     2.355   .     S
Au33   S13     2.344   .     S
Au34   S4      2.357   .     S
Au34   S16     2.371   .     S
Au35   S21     2.347   .     S
Au35   S17     2.353   .     S
Au36   S15     2.370   .     S
Au36   S8      2.363   .     S
Au37   S19     2.348   .     S
Au37   S18     2.355   .     S
