data_38-24-B-ch3
_audit_creation_date              2022-11-25
_audit_creation_method            'Materials Studio'
_symmetry_space_group_name_H-M    'P1'
_symmetry_Int_Tables_number       1
_symmetry_cell_setting            triclinic
loop_
_symmetry_equiv_pos_as_xyz
  x,y,z
_cell_length_a                    20.0000
_cell_length_b                    20.0000
_cell_length_c                    20.0000
_cell_angle_alpha                 90.0000
_cell_angle_beta                  90.0000
_cell_angle_gamma                 90.0000
loop_
_atom_site_label
_atom_site_type_symbol
_atom_site_fract_x
_atom_site_fract_y
_atom_site_fract_z
_atom_site_U_iso_or_equiv
_atom_site_adp_type
_atom_site_occupancy
Au1    Au    0.79964  -0.51970   0.38120   0.00000  Uiso   1.00
Au2    Au    0.79781  -0.62697   0.52589   0.00000  Uiso   1.00
Au3    Au    0.73019  -0.42595   0.47574   0.00000  Uiso   1.00
Au4    Au    0.66979  -0.55484   0.46813   0.00000  Uiso   1.00
Au5    Au    0.72670  -0.50917   0.58909   0.00000  Uiso   1.00
Au6    Au    0.71655  -0.27973   0.37730   0.00000  Uiso   1.00
Au7    Au    0.65068  -0.42617   0.34802   0.00000  Uiso   1.00
Au8    Au    0.59352  -0.34209   0.44351   0.00000  Uiso   1.00
Au9    Au    0.60822  -0.44792   0.54363   0.00000  Uiso   1.00
Au10   Au    0.53570  -0.57054   0.54722   0.00000  Uiso   1.00
Au11   Au    0.64498  -0.63092   0.61931   0.00000  Uiso   1.00
Au12   Au    0.70664  -0.56767   0.75243   0.00000  Uiso   1.00
Au13   Au    0.61955  -0.72014   0.74494   0.00000  Uiso   1.00
Au14   Au    0.53148  -0.79324   0.60017   0.00000  Uiso   1.00
Au15   Au    0.51247  -0.64610   0.66469   0.00000  Uiso   1.00
Au16   Au    0.58383  -0.51755   0.67074   0.00000  Uiso   1.00
Au17   Au    0.56893  -0.34013   0.62672   0.00000  Uiso   1.00
Au18   Au    0.51440  -0.61517   0.41037   0.00000  Uiso   1.00
Au19   Au    0.53828  -0.47185   0.42287   0.00000  Uiso   1.00
Au20   Au    0.52360  -0.37504   0.31923   0.00000  Uiso   1.00
Au21   Au    0.53885  -0.46774   0.19091   0.00000  Uiso   1.00
Au22   Au    0.63417  -0.31801   0.23029   0.00000  Uiso   1.00
Au23   Au    0.43235  -0.50796   0.33227   0.00000  Uiso   1.00
Au24   Au    0.40677  -0.39708   0.42506   0.00000  Uiso   1.00
Au25   Au    0.46855  -0.42689   0.55988   0.00000  Uiso   1.00
Au26   Au    0.40055  -0.54948   0.61500   0.00000  Uiso   1.00
Au27   Au    0.42718  -0.66515   0.52790   0.00000  Uiso   1.00
Au28   Au    0.41876  -0.53009   0.47481   0.00000  Uiso   1.00
Au29   Au    0.34432  -0.38531   0.28551   0.00000  Uiso   1.00
Au30   Au    0.38704  -0.28900   0.55534   0.00000  Uiso   1.00
Au31   Au    0.29693  -0.49715   0.40540   0.00000  Uiso   1.00
Au32   Au    0.32607  -0.44072   0.54525   0.00000  Uiso   1.00
Au33   Au    0.37679  -0.63309   0.39086   0.00000  Uiso   1.00
Au34   Au    0.38096  -0.39854   0.69198   0.00000  Uiso   1.00
Au35   Au    0.29266  -0.58400   0.51852   0.00000  Uiso   1.00
Au36   Au    0.33440  -0.67982   0.65702   0.00000  Uiso   1.00
Au37   Au    0.17158  -0.48416   0.49758   0.00000  Uiso   1.00
Au38   Au    0.20977  -0.62892   0.39367   0.00000  Uiso   1.00
S1     S     0.87144  -0.55529   0.46818   0.00000  Uiso   1.00
S2     S     0.74311  -0.47854   0.28680   0.00000  Uiso   1.00
S3     S     0.73507  -0.70704   0.58446   0.00000  Uiso   1.00
S4     S     0.79213  -0.32414   0.45581   0.00000  Uiso   1.00
S5     S     0.78306  -0.49814   0.69571   0.00000  Uiso   1.00
S6     S     0.63064  -0.64203   0.39149   0.00000  Uiso   1.00
S7     S     0.63227  -0.40667   0.15289   0.00000  Uiso   1.00
S8     S     0.64511  -0.22448   0.30130   0.00000  Uiso   1.00
S9     S     0.57403  -0.26438   0.53543   0.00000  Uiso   1.00
S10    S     0.56263  -0.40979   0.72293   0.00000  Uiso   1.00
S11    S     0.44469  -0.53346   0.21399   0.00000  Uiso   1.00
S12    S     0.63048  -0.62886   0.81915   0.00000  Uiso   1.00
S13    S     0.62038  -0.81474   0.67454   0.00000  Uiso   1.00
S14    S     0.43420  -0.31121   0.26765   0.00000  Uiso   1.00
S15    S     0.39822  -0.27649   0.43917   0.00000  Uiso   1.00
S16    S     0.44549  -0.78593   0.52081   0.00000  Uiso   1.00
S17    S     0.24613  -0.44792   0.30548   0.00000  Uiso   1.00
S18    S     0.36238  -0.28466   0.67007   0.00000  Uiso   1.00
S19    S     0.28992  -0.69658   0.33879   0.00000  Uiso   1.00
S20    S     0.39077  -0.50916   0.73016   0.00000  Uiso   1.00
S21    S     0.42152  -0.68349   0.73631   0.00000  Uiso   1.00
S22    S     0.24324  -0.67610   0.58206   0.00000  Uiso   1.00
S23    S     0.21502  -0.38925   0.55253   0.00000  Uiso   1.00
S24    S     0.11760  -0.57292   0.44164   0.00000  Uiso   1.00
loop_
_geom_bond_atom_site_label_1
_geom_bond_atom_site_label_2
_geom_bond_distance
_geom_bond_site_symmetry_2
_ccdc_geom_bond_type
Au1    S1      2.365   .     S
Au1    S2      2.350   .     S
Au2    S3      2.348   .     S
Au2    S1      2.357   .     S
Au3    S4      2.416   .     S
Au4    S6      2.450   .     S
Au5    S5      2.422   .     S
Au6    S4      2.354   .     S
Au6    S8      2.361   .     S
Au7    S2      2.452   .     S
Au8    S9      2.439   .     S
Au11   S3      2.460   .     S
Au11   Au16    2.774   .     S
Au12   S5      2.357   .     S
Au12   S12     2.366   .     S
Au13   S13     2.358   .     S
Au13   S12     2.363   .     S
Au14   S16     2.345   .     S
Au14   S13     2.358   .     S
Au15   S21     2.433   .     S
Au16   S10     2.432   .     S
Au17   S9      2.375   .     S
Au17   S10     2.379   .     S
Au18   S6      2.416   .     S
Au20   S14     2.427   .     S
Au21   S7      2.358   .     S
Au21   S11     2.343   .     S
Au22   S8      2.359   .     S
Au22   S7      2.354   .     S
Au23   S11     2.432   .     S
Au24   S15     2.434   .     S
Au26   S20     2.448   .     S
Au27   S16     2.447   .     S
Au29   S17     2.363   .     S
Au29   S14     2.357   .     S
Au30   S15     2.348   .     S
Au30   S18     2.348   .     S
Au31   S17     2.449   .     S
Au32   S23     2.452   .     S
Au33   S19     2.391   .     S
Au34   S20     2.349   .     S
Au34   S18     2.349   .     S
Au35   S22     2.446   .     S
Au36   S21     2.357   .     S
Au36   S22     2.361   .     S
Au37   S24     2.360   .     S
Au37   S23     2.359   .     S
Au38   S24     2.361   .     S
Au38   S19     2.368   .     S
