data_38-24-ch3
_audit_creation_date              2022-11-25
_audit_creation_method            'Materials Studio'
_symmetry_space_group_name_H-M    'P1'
_symmetry_Int_Tables_number       1
_symmetry_cell_setting            triclinic
loop_
_symmetry_equiv_pos_as_xyz
  x,y,z
_cell_length_a                    20.0000
_cell_length_b                    20.0000
_cell_length_c                    20.0000
_cell_angle_alpha                 90.0000
_cell_angle_beta                  90.0000
_cell_angle_gamma                 90.0000
loop_
_atom_site_label
_atom_site_type_symbol
_atom_site_fract_x
_atom_site_fract_y
_atom_site_fract_z
_atom_site_U_iso_or_equiv
_atom_site_adp_type
_atom_site_occupancy
Au1    Au    0.41248   0.43899   0.54603   0.00000  Uiso   1.00
Au2    Au    0.45122   0.48043   0.41256   0.00000  Uiso   1.00
Au3    Au    0.45926   0.62551   0.42510   0.00000  Uiso   1.00
Au4    Au    0.54069   0.54575   0.32064   0.00000  Uiso   1.00
Au5    Au    0.68813   0.46664   0.50233   0.00000  Uiso   1.00
Au6    Au    0.34381   0.54888   0.48558   0.00000  Uiso   1.00
Au7    Au    0.57089   0.54527   0.46371   0.00000  Uiso   1.00
Au8    Au    0.46714   0.57224   0.56163   0.00000  Uiso   1.00
Au9    Au    0.35343   0.53424   0.64007   0.00000  Uiso   1.00
Au10   Au    0.32987   0.40663   0.42937   0.00000  Uiso   1.00
Au11   Au    0.58341   0.41969   0.39770   0.00000  Uiso   1.00
Au12   Au    0.55701   0.42346   0.54153   0.00000  Uiso   1.00
Au13   Au    0.60575   0.54738   0.60192   0.00000  Uiso   1.00
Au14   Au    0.68844   0.61871   0.50223   0.00000  Uiso   1.00
Au15   Au    0.46745   0.34186   0.45789   0.00000  Uiso   1.00
Au16   Au    0.47848   0.32404   0.60811   0.00000  Uiso   1.00
Au17   Au    0.59830   0.66023   0.38187   0.00000  Uiso   1.00
Au18   Au    0.39279   0.46021   0.27393   0.00000  Uiso   1.00
Au19   Au    0.27000   0.44744   0.56274   0.00000  Uiso   1.00
Au20   Au    0.68173   0.53036   0.37460   0.00000  Uiso   1.00
Au21   Au    0.48940   0.46913   0.66292   0.00000  Uiso   1.00
Au22   Au    0.19896   0.32658   0.46458   0.00000  Uiso   1.00
Au23   Au    0.56050   0.67566   0.52938   0.00000  Uiso   1.00
Au24   Au    0.48873   0.69543   0.27251   0.00000  Uiso   1.00
Au25   Au    0.36696   0.38582   0.67090   0.00000  Uiso   1.00
Au26   Au    0.34327   0.24723   0.39204   0.00000  Uiso   1.00
Au27   Au    0.21164   0.59288   0.58398   0.00000  Uiso   1.00
Au28   Au    0.64859   0.62208   0.23488   0.00000  Uiso   1.00
Au29   Au    0.34404   0.31314   0.53641   0.00000  Uiso   1.00
Au30   Au    0.37878   0.22395   0.67718   0.00000  Uiso   1.00
Au31   Au    0.42685   0.69449   0.64335   0.00000  Uiso   1.00
Au32   Au    0.66604   0.78025   0.48309   0.00000  Uiso   1.00
Au33   Au    0.68143   0.69385   0.63972   0.00000  Uiso   1.00
Au34   Au    0.74769   0.38370   0.37760   0.00000  Uiso   1.00
Au35   Au    0.48494   0.33462   0.76941   0.00000  Uiso   1.00
Au36   Au    0.23233   0.47615   0.71938   0.00000  Uiso   1.00
Au37   Au    0.82338   0.52788   0.44929   0.00000  Uiso   1.00
Au38   Au    0.65475   0.32048   0.59434   0.00000  Uiso   1.00
S1     S     0.46055   0.24497   0.38355   0.00000  Uiso   1.00
S2     S     0.22586   0.24339   0.38591   0.00000  Uiso   1.00
S3     S     0.53019   0.44314   0.77527   0.00000  Uiso   1.00
S4     S     0.29182   0.41349   0.31304   0.00000  Uiso   1.00
S5     S     0.65411   0.59790   0.70225   0.00000  Uiso   1.00
S6     S     0.39942   0.70026   0.34896   0.00000  Uiso   1.00
S7     S     0.50275   0.76616   0.58864   0.00000  Uiso   1.00
S8     S     0.48729   0.50411   0.21874   0.00000  Uiso   1.00
S9     S     0.73665   0.55121   0.26839   0.00000  Uiso   1.00
S10    S     0.25002   0.62735   0.47809   0.00000  Uiso   1.00
S11    S     0.85403   0.42057   0.41175   0.00000  Uiso   1.00
S12    S     0.16773   0.57025   0.69068   0.00000  Uiso   1.00
S13    S     0.15782   0.40536   0.54192   0.00000  Uiso   1.00
S14    S     0.34698   0.63651   0.70777   0.00000  Uiso   1.00
S15    S     0.28754   0.38156   0.76254   0.00000  Uiso   1.00
S16    S     0.71786   0.79325   0.58792   0.00000  Uiso   1.00
S17    S     0.62366   0.77870   0.37348   0.00000  Uiso   1.00
S18    S     0.57296   0.70079   0.19054   0.00000  Uiso   1.00
S19    S     0.45013   0.22231   0.77095   0.00000  Uiso   1.00
S20    S     0.75071   0.38387   0.56736   0.00000  Uiso   1.00
S21    S     0.30326   0.21099   0.58797   0.00000  Uiso   1.00
S22    S     0.57014   0.24543   0.62780   0.00000  Uiso   1.00
S23    S     0.64817   0.33169   0.34283   0.00000  Uiso   1.00
S24    S     0.80735   0.63824   0.48710   0.00000  Uiso   1.00
loop_
_geom_bond_atom_site_label_1
_geom_bond_atom_site_label_2
_geom_bond_distance
_geom_bond_site_symmetry_2
_ccdc_geom_bond_type
Au3    S6      2.447   .     S
Au4    S8      2.447   .     S
Au5    S20     2.449   .     S
Au6    S10     2.450   .     S
Au9    S14     2.456   .     S
Au10   S4      2.452   .     S
Au11   S23     2.445   .     S
Au13   S5      2.446   .     S
Au14   S24     2.429   .     S
Au15   S1      2.446   .     S
Au16   S22     2.447   .     S
Au17   S17     2.429   .     S
Au18   S8      2.358   .     S
Au18   S4      2.358   .     S
Au19   S13     2.432   .     S
Au20   S9      2.427   .     S
Au21   S3      2.446   .     S
Au22   S13     2.356   .     S
Au22   S2      2.352   .     S
Au23   S7      2.452   .     S
Au24   S18     2.353   .     S
Au24   S6      2.353   .     S
Au25   S15     2.427   .     S
Au26   S2      2.353   .     S
Au26   S1      2.352   .     S
Au27   S12     2.352   .     S
Au27   S10     2.356   .     S
Au28   S9      2.358   .     S
Au28   S18     2.356   .     S
Au29   S21     2.430   .     S
Au30   S21     2.352   .     S
Au30   S19     2.357   .     S
Au31   S7      2.357   .     S
Au31   S14     2.357   .     S
Au32   S17     2.351   .     S
Au32   S16     2.353   .     S
Au33   S16     2.357   .     S
Au33   S5      2.355   .     S
Au34   S23     2.351   .     S
Au34   S11     2.352   .     S
Au35   S3      2.354   .     S
Au35   S19     2.352   .     S
Au36   S15     2.354   .     S
Au36   S12     2.354   .     S
Au37   S24     2.355   .     S
Au37   S11     2.355   .     S
Au38   S22     2.359   .     S
Au38   S20     2.363   .     S
