data_39-24
_audit_creation_date              2023-04-12
_audit_creation_method            'Materials Studio'
_symmetry_space_group_name_H-M    'P1'
_symmetry_Int_Tables_number       1
_symmetry_cell_setting            triclinic
loop_
_symmetry_equiv_pos_as_xyz
  x,y,z
_cell_length_a                    20.0000
_cell_length_b                    20.0000
_cell_length_c                    20.0000
_cell_angle_alpha                 90.0000
_cell_angle_beta                  90.0000
_cell_angle_gamma                 90.0000
loop_
_atom_site_label
_atom_site_type_symbol
_atom_site_fract_x
_atom_site_fract_y
_atom_site_fract_z
_atom_site_U_iso_or_equiv
_atom_site_adp_type
_atom_site_occupancy
Au1    Au    0.57003   0.45101   0.53473   0.00000  Uiso   1.00
Au2    Au    0.62179   0.56099   0.44844   0.00000  Uiso   1.00
Au3    Au    0.47846   0.55865   0.49210   0.00000  Uiso   1.00
Au4    Au    0.48917   0.45912   0.37902   0.00000  Uiso   1.00
Au5    Au    0.35286   0.48742   0.45102   0.00000  Uiso   1.00
Au6    Au    0.52463   0.66241   0.38866   0.00000  Uiso   1.00
Au7    Au    0.53050   0.55281   0.63043   0.00000  Uiso   1.00
Au8    Au    0.36029   0.29611   0.57110   0.00000  Uiso   1.00
Au9    Au    0.69390   0.43896   0.45249   0.00000  Uiso   1.00
Au10   Au    0.57027   0.66786   0.52407   0.00000  Uiso   1.00
Au11   Au    0.66812   0.54235   0.57750   0.00000  Uiso   1.00
Au12   Au    0.43369   0.69754   0.49414   0.00000  Uiso   1.00
Au13   Au    0.39708   0.61252   0.39002   0.00000  Uiso   1.00
Au14   Au    0.62718   0.39453   0.68633   0.00000  Uiso   1.00
Au15   Au    0.58297   0.35007   0.43870   0.00000  Uiso   1.00
Au16   Au    0.43193   0.45624   0.57836   0.00000  Uiso   1.00
Au17   Au    0.50023   0.71027   0.64772   0.00000  Uiso   1.00
Au18   Au    0.28061   0.20110   0.49569   0.00000  Uiso   1.00
Au19   Au    0.22005   0.41891   0.42683   0.00000  Uiso   1.00
Au20   Au    0.27367   0.49510   0.57684   0.00000  Uiso   1.00
Au21   Au    0.43933   0.36302   0.47046   0.00000  Uiso   1.00
Au22   Au    0.37285   0.56955   0.63143   0.00000  Uiso   1.00
Au23   Au    0.66589   0.34930   0.55285   0.00000  Uiso   1.00
Au24   Au    0.41747   0.21010   0.68377   0.00000  Uiso   1.00
Au25   Au    0.25612   0.61431   0.44455   0.00000  Uiso   1.00
Au26   Au    0.77113   0.60222   0.47929   0.00000  Uiso   1.00
Au27   Au    0.44223   0.18205   0.52171   0.00000  Uiso   1.00
Au28   Au    0.69295   0.64749   0.34912   0.00000  Uiso   1.00
Au29   Au    0.27544   0.51777   0.32022   0.00000  Uiso   1.00
Au30   Au    0.50123   0.33223   0.59164   0.00000  Uiso   1.00
Au31   Au    0.60482   0.21632   0.62163   0.00000  Uiso   1.00
Au32   Au    0.36747   0.39126   0.35210   0.00000  Uiso   1.00
Au33   Au    0.25906   0.23525   0.65838   0.00000  Uiso   1.00
Au34   Au    0.51551   0.35742   0.26304   0.00000  Uiso   1.00
Au35   Au    0.45585   0.24160   0.38556   0.00000  Uiso   1.00
Au36   Au    0.18492   0.32242   0.55203   0.00000  Uiso   1.00
Au37   Au    0.30829   0.68089   0.58086   0.00000  Uiso   1.00
S1     S     0.60354   0.55424   0.73022   0.00000  Uiso   1.00
S2     S     0.55516   0.30414   0.69715   0.00000  Uiso   1.00
S3     S     0.68296   0.49753   0.69623   0.00000  Uiso   1.00
S4     S     0.58592   0.77381   0.59235   0.00000  Uiso   1.00
S5     S     0.45053   0.61989   0.70520   0.00000  Uiso   1.00
S6     S     0.33434   0.40260   0.62661   0.00000  Uiso   1.00
S7     S     0.17211   0.43611   0.53219   0.00000  Uiso   1.00
S8     S     0.33030   0.25090   0.74775   0.00000  Uiso   1.00
S9     S     0.18725   0.20605   0.56804   0.00000  Uiso   1.00
S10    S     0.76431   0.62162   0.59431   0.00000  Uiso   1.00
S11    S     0.78865   0.57838   0.36492   0.00000  Uiso   1.00
S12    S     0.60658   0.72090   0.32865   0.00000  Uiso   1.00
S13    S     0.71295   0.25407   0.60148   0.00000  Uiso   1.00
S14    S     0.50141   0.15548   0.62015   0.00000  Uiso   1.00
S15    S     0.37010   0.17002   0.42734   0.00000  Uiso   1.00
S16    S     0.56501   0.27498   0.35039   0.00000  Uiso   1.00
S17    S     0.41273   0.30246   0.28524   0.00000  Uiso   1.00
S18    S     0.59649   0.41694   0.20527   0.00000  Uiso   1.00
S19    S     0.29338   0.63303   0.33245   0.00000  Uiso   1.00
S20    S     0.25059   0.40298   0.31357   0.00000  Uiso   1.00
S21    S     0.22178   0.60336   0.55686   0.00000  Uiso   1.00
S22    S     0.39422   0.76060   0.58738   0.00000  Uiso   1.00
S23    S     0.57136   0.53505   0.33752   0.00000  Uiso   1.00
Au38   Au    0.68039   0.70331   0.60150   0.00000  Uiso   1.00
Au39   Au    0.66394   0.46052   0.28790   0.00000  Uiso   1.00
S24    S     0.76084   0.47312   0.35754   0.00000  Uiso   1.00
loop_
_geom_bond_atom_site_label_1
_geom_bond_atom_site_label_2
_geom_bond_distance
_geom_bond_site_symmetry_2
_ccdc_geom_bond_type
Au2    S23     2.492   .     S
Au2    Au11    2.768   .     S
Au4    S23     2.387   .     S
Au5    Au32    2.775   .     S
Au6    Au13    2.739   .     S
Au6    S12     2.344   .     S
Au7    S1      2.474   .     S
Au7    S5      2.568   .     S
Au8    S6      2.457   .     S
Au9    S24     2.422   .     S
Au9    Au23    2.749   .     S
Au10   S4      2.540   .     S
Au11   S10     2.515   .     S
Au11   S3      2.556   .     S
Au12   S22     2.386   .     S
Au13   S19     2.407   .     S
Au14   S3      2.351   .     S
Au14   S2      2.322   .     S
Au15   S16     2.346   .     S
Au16   Au22    2.767   .     S
Au16   S6      2.427   .     S
Au17   S5      2.362   .     S
Au17   S4      2.404   .     S
Au18   S9      2.364   .     S
Au18   S15     2.336   .     S
Au19   S20     2.368   .     S
Au19   S7      2.341   .     S
Au20   S21     2.434   .     S
Au20   S7      2.513   .     S
Au20   Au22    2.710   .     S
Au20   S6      2.426   .     S
Au22   S5      2.367   .     S
Au22   Au37    2.766   .     S
Au23   S13     2.337   .     S
Au24   S14     2.373   .     S
Au24   S8      2.311   .     S
Au25   S19     2.392   .     S
Au25   S21     2.359   .     S
Au26   S10     2.337   .     S
Au26   S11     2.363   .     S
Au27   S15     2.388   .     S
Au27   S14     2.358   .     S
Au28   S11     2.382   .     S
Au28   S12     2.304   .     S
Au29   S20     2.353   .     S
Au29   S19     2.346   .     S
Au30   S2      2.436   .     S
Au31   S2      2.520   .     S
Au31   S14     2.400   .     S
Au31   S13     2.326   .     S
Au32   S20     2.473   .     S
Au32   S17     2.400   .     S
Au33   S9      2.381   .     S
Au33   S8      2.307   .     S
Au34   S18     2.318   .     S
Au34   S17     2.373   .     S
Au35   S16     2.389   .     S
Au35   S15     2.385   .     S
Au35   S17     2.500   .     S
Au36   S7      2.322   .     S
Au36   S9      2.350   .     S
Au37   S21     2.372   .     S
Au37   S22     2.348   .     S
S1     S3      2.067   .     S
S4     Au38    2.365   .     S
S10    Au38    2.347   .     S
S11    S24     2.183   .     S
S18    Au39    2.304   .     S
S23    Au39    2.576   .     S
Au39   S24     2.400   .     S
