data_40-24-A-ch3
_audit_creation_date              2022-11-25
_audit_creation_method            'Materials Studio'
_symmetry_space_group_name_H-M    'P1'
_symmetry_Int_Tables_number       1
_symmetry_cell_setting            triclinic
loop_
_symmetry_equiv_pos_as_xyz
  x,y,z
_cell_length_a                    20.0000
_cell_length_b                    20.0000
_cell_length_c                    20.0000
_cell_angle_alpha                 90.0000
_cell_angle_beta                  90.0000
_cell_angle_gamma                 90.0000
loop_
_atom_site_label
_atom_site_type_symbol
_atom_site_fract_x
_atom_site_fract_y
_atom_site_fract_z
_atom_site_U_iso_or_equiv
_atom_site_adp_type
_atom_site_occupancy
Au1    Au    0.45493  -0.42347   0.60947   0.00000  Uiso   1.00
S1     S     0.39893  -0.36554   0.70089   0.00000  Uiso   1.00
Au2    Au    0.42824  -0.49511   0.37315   0.00000  Uiso   1.00
S2     S     0.34646  -0.50064   0.28319   0.00000  Uiso   1.00
Au3    Au    0.48533  -0.33823   0.49188   0.00000  Uiso   1.00
Au4    Au    0.57578  -0.30825   0.59311   0.00000  Uiso   1.00
Au5    Au    0.39113  -0.33887   0.38956   0.00000  Uiso   1.00
Au6    Au    0.39376  -0.57896   0.49156   0.00000  Uiso   1.00
Au7    Au    0.32396  -0.51522   0.59318   0.00000  Uiso   1.00
Au8    Au    0.44128  -0.66034   0.38951   0.00000  Uiso   1.00
Au9    Au    0.62850  -0.38695   0.49137   0.00000  Uiso   1.00
Au10   Au    0.75081  -0.43889   0.52301   0.00000  Uiso   1.00
Au11   Au    0.59976  -0.25717   0.45964   0.00000  Uiso   1.00
Au12   Au    0.69571  -0.45382   0.38997   0.00000  Uiso   1.00
Au13   Au    0.36589  -0.43065   0.49099   0.00000  Uiso   1.00
S3     S     0.28162  -0.58173   0.68595   0.00000  Uiso   1.00
S4     S     0.75586  -0.50275   0.29604   0.00000  Uiso   1.00
Au14   Au    0.64935  -0.53682   0.49132   0.00000  Uiso   1.00
Au15   Au    0.58978  -0.46838   0.60915   0.00000  Uiso   1.00
S5     S     0.66762  -0.44765   0.70028   0.00000  Uiso   1.00
Au16   Au    0.54154  -0.40935   0.37348   0.00000  Uiso   1.00
S6     S     0.57663  -0.33585   0.28317   0.00000  Uiso   1.00
Au17   Au    0.62805  -0.62978   0.59217   0.00000  Uiso   1.00
S7     S     0.56862  -0.14877   0.41743   0.00000  Uiso   1.00
S8     S     0.53974  -0.23847   0.68615   0.00000  Uiso   1.00
Au18   Au    0.53334  -0.63651   0.49076   0.00000  Uiso   1.00
S9     S     0.70626  -0.63285   0.68546   0.00000  Uiso   1.00
Au19   Au    0.65946  -0.67690   0.45860   0.00000  Uiso   1.00
S10    S     0.76850  -0.70481   0.41594   0.00000  Uiso   1.00
S11    S     0.85058  -0.48997   0.56701   0.00000  Uiso   1.00
Au20   Au    0.42699  -0.71566   0.52313   0.00000  Uiso   1.00
S12    S     0.33354  -0.77785   0.56690   0.00000  Uiso   1.00
S13    S     0.36773  -0.68789   0.29642   0.00000  Uiso   1.00
S14    S     0.40371  -0.26320   0.29487   0.00000  Uiso   1.00
Au21   Au    0.48329  -0.56271   0.60937   0.00000  Uiso   1.00
S15    S     0.46178  -0.64077   0.70028   0.00000  Uiso   1.00
Au22   Au    0.55957  -0.54995   0.37345   0.00000  Uiso   1.00
S16    S     0.60408  -0.61744   0.28255   0.00000  Uiso   1.00
Au23   Au    0.35016  -0.29917   0.52324   0.00000  Uiso   1.00
Au24   Au    0.26644  -0.51924   0.46038   0.00000  Uiso   1.00
S17    S     0.18683  -0.59912   0.41770   0.00000  Uiso   1.00
S18    S     0.34424  -0.18679   0.56614   0.00000  Uiso   1.00
Au25   Au    0.30651  -0.67927   0.62528   0.00000  Uiso   1.00
Au26   Au    0.27721  -0.64470   0.35775   0.00000  Uiso   1.00
Au27   Au    0.44263  -0.21178   0.62556   0.00000  Uiso   1.00
Au28   Au    0.48471  -0.20502   0.35707   0.00000  Uiso   1.00
Au29   Au    0.77885  -0.56244   0.62566   0.00000  Uiso   1.00
Au30   Au    0.76327  -0.60313   0.35685   0.00000  Uiso   1.00
Au31   Au    0.56789  -0.71573   0.33600   0.00000  Uiso   1.00
S19    S     0.52971  -0.81846   0.37946   0.00000  Uiso   1.00
Au32   Au    0.55995  -0.80105   0.49187   0.00000  Uiso   1.00
Au33   Au    0.52716  -0.72293   0.64735   0.00000  Uiso   1.00
S20    S     0.59568  -0.80844   0.60380   0.00000  Uiso   1.00
Au34   Au    0.67976  -0.31639   0.33614   0.00000  Uiso   1.00
S21    S     0.78820  -0.29705   0.37818   0.00000  Uiso   1.00
Au35   Au    0.75802  -0.28163   0.49094   0.00000  Uiso   1.00
Au36   Au    0.70710  -0.35057   0.64703   0.00000  Uiso   1.00
S22    S     0.74709  -0.24860   0.60336   0.00000  Uiso   1.00
Au37   Au    0.27902  -0.42067   0.33707   0.00000  Uiso   1.00
S23    S     0.20986  -0.33582   0.38093   0.00000  Uiso   1.00
Au38   Au    0.20937  -0.37217   0.49292   0.00000  Uiso   1.00
Au39   Au    0.29526  -0.38079   0.64763   0.00000  Uiso   1.00
S24    S     0.18635  -0.39740   0.60568   0.00000  Uiso   1.00
Au40   Au    0.50954  -0.48505   0.49137   0.00000  Uiso   1.00
loop_
_geom_bond_atom_site_label_1
_geom_bond_atom_site_label_2
_geom_bond_distance
_geom_bond_site_symmetry_2
_ccdc_geom_bond_type
Au1    S1      2.437   .     S
S1     Au39    2.351   .     S
Au2    S2      2.434   .     S
S2     Au37    2.353   .     S
Au3    Au4     2.781   .     S
Au3    Au5     2.782   .     S
Au4    Au9     2.780   .     S
Au4    S8      2.435   .     S
Au5    Au13    2.782   .     S
Au5    S14     2.437   .     S
Au6    Au7     2.776   .     S
Au6    Au8     2.778   .     S
Au7    Au13    2.782   .     S
Au7    S3      2.435   .     S
Au8    Au18    2.778   .     S
Au8    S13     2.436   .     S
Au9    Au10    2.732   .     S
Au9    Au11    2.733   .     S
Au9    Au12    2.776   .     S
Au10   S11     2.408   .     S
Au11   S7      2.409   .     S
Au12   S4      2.436   .     S
Au12   Au14    2.779   .     S
Au13   Au24    2.733   .     S
Au13   Au23    2.726   .     S
S3     Au25    2.351   .     S
S4     Au30    2.352   .     S
Au14   Au17    2.776   .     S
Au15   S5      2.433   .     S
S5     Au36    2.351   .     S
Au16   S6      2.432   .     S
S6     Au34    2.351   .     S
Au17   Au18    2.778   .     S
Au17   S9      2.436   .     S
S7     Au28    2.354   .     S
S8     Au27    2.351   .     S
Au18   Au19    2.726   .     S
Au18   Au20    2.729   .     S
S9     Au29    2.350   .     S
Au19   S10     2.407   .     S
S10    Au30    2.354   .     S
S11    Au29    2.353   .     S
Au20   S12     2.410   .     S
S12    Au25    2.354   .     S
S13    Au26    2.351   .     S
S14    Au28    2.351   .     S
Au21   S15     2.435   .     S
S15    Au33    2.352   .     S
Au22   S16     2.433   .     S
S16    Au31    2.352   .     S
Au23   S18     2.409   .     S
Au24   S17     2.412   .     S
S17    Au26    2.353   .     S
S18    Au27    2.353   .     S
Au31   S19     2.358   .     S
S19    Au32    2.354   .     S
Au32   S20     2.354   .     S
Au33   S20     2.358   .     S
Au34   S21     2.358   .     S
S21    Au35    2.355   .     S
Au35   S22     2.354   .     S
Au36   S22     2.358   .     S
Au37   S23     2.359   .     S
S23    Au38    2.355   .     S
Au38   S24     2.357   .     S
Au39   S24     2.358   .     S
