data_42-26-ch3
_audit_creation_date              2022-11-25
_audit_creation_method            'Materials Studio'
_symmetry_space_group_name_H-M    'P1'
_symmetry_Int_Tables_number       1
_symmetry_cell_setting            triclinic
loop_
_symmetry_equiv_pos_as_xyz
  x,y,z
_cell_length_a                    25.0000
_cell_length_b                    25.0000
_cell_length_c                    25.0000
_cell_angle_alpha                 90.0000
_cell_angle_beta                  90.0000
_cell_angle_gamma                 90.0000
loop_
_atom_site_label
_atom_site_type_symbol
_atom_site_fract_x
_atom_site_fract_y
_atom_site_fract_z
_atom_site_U_iso_or_equiv
_atom_site_adp_type
_atom_site_occupancy
Au1    Au    0.77141  -0.56960   0.49755   0.00000  Uiso   1.00
Au2    Au    0.67690  -0.64934   0.44467   0.00000  Uiso   1.00
Au3    Au    0.60516  -0.58455   0.51990   0.00000  Uiso   1.00
Au4    Au    0.51363  -0.54564   0.60509   0.00000  Uiso   1.00
Au5    Au    0.41788  -0.58269   0.56404   0.00000  Uiso   1.00
Au6    Au    0.44325  -0.47281   0.55455   0.00000  Uiso   1.00
Au7    Au    0.37115  -0.39964   0.50642   0.00000  Uiso   1.00
Au8    Au    0.37585  -0.47482   0.65338   0.00000  Uiso   1.00
Au9    Au    0.44348  -0.36318   0.58117   0.00000  Uiso   1.00
Au10   Au    0.51572  -0.29988   0.67462   0.00000  Uiso   1.00
Au11   Au    0.51453  -0.43202   0.65018   0.00000  Uiso   1.00
Au12   Au    0.56285  -0.36167   0.57883   0.00000  Uiso   1.00
Au13   Au    0.60993  -0.37797   0.74197   0.00000  Uiso   1.00
Au14   Au    0.62289  -0.43747   0.63850   0.00000  Uiso   1.00
Au15   Au    0.58884  -0.51921   0.72998   0.00000  Uiso   1.00
Au16   Au    0.57417  -0.47324   0.54070   0.00000  Uiso   1.00
Au17   Au    0.65540  -0.51438   0.44954   0.00000  Uiso   1.00
Au18   Au    0.68383  -0.50777   0.55474   0.00000  Uiso   1.00
Au19   Au    0.75454  -0.42950   0.48312   0.00000  Uiso   1.00
S1     S     0.82088  -0.49486   0.46953   0.00000  Uiso   1.00
S2     S     0.73328  -0.65270   0.52060   0.00000  Uiso   1.00
S3     S     0.55886  -0.66622   0.55187   0.00000  Uiso   1.00
S4     S     0.56417  -0.59033   0.67462   0.00000  Uiso   1.00
S5     S     0.69531  -0.35766   0.49324   0.00000  Uiso   1.00
S6     S     0.71168  -0.47655   0.64238   0.00000  Uiso   1.00
S7     S     0.60590  -0.29292   0.70193   0.00000  Uiso   1.00
S8     S     0.61676  -0.45601   0.79376   0.00000  Uiso   1.00
S9     S     0.44857  -0.46716   0.71254   0.00000  Uiso   1.00
S10    S     0.29497  -0.48177   0.60599   0.00000  Uiso   1.00
S11    S     0.40759  -0.27914   0.44299   0.00000  Uiso   1.00
S12    S     0.62413  -0.65077   0.36676   0.00000  Uiso   1.00
S13    S     0.42457  -0.29819   0.65097   0.00000  Uiso   1.00
Au20   Au    0.21312  -0.56935   0.47230   0.00000  Uiso   1.00
Au21   Au    0.30761  -0.64907   0.52517   0.00000  Uiso   1.00
Au22   Au    0.37948  -0.58441   0.45013   0.00000  Uiso   1.00
Au23   Au    0.47076  -0.54591   0.36486   0.00000  Uiso   1.00
Au24   Au    0.56637  -0.58308   0.40615   0.00000  Uiso   1.00
Au25   Au    0.54129  -0.47315   0.41528   0.00000  Uiso   1.00
Au26   Au    0.61339  -0.39981   0.46302   0.00000  Uiso   1.00
Au27   Au    0.60880  -0.47540   0.31651   0.00000  Uiso   1.00
Au28   Au    0.54102  -0.36354   0.38822   0.00000  Uiso   1.00
Au29   Au    0.46931  -0.30040   0.29423   0.00000  Uiso   1.00
Au30   Au    0.47006  -0.43252   0.31927   0.00000  Uiso   1.00
Au31   Au    0.42173  -0.36171   0.39013   0.00000  Uiso   1.00
Au32   Au    0.37488  -0.37867   0.22700   0.00000  Uiso   1.00
Au33   Au    0.36166  -0.43776   0.33085   0.00000  Uiso   1.00
Au34   Au    0.39553  -0.51987   0.23985   0.00000  Uiso   1.00
Au35   Au    0.41045  -0.47305   0.42888   0.00000  Uiso   1.00
Au36   Au    0.32909  -0.51416   0.52036   0.00000  Uiso   1.00
Au37   Au    0.30085  -0.50765   0.41515   0.00000  Uiso   1.00
Au38   Au    0.23010  -0.42925   0.48670   0.00000  Uiso   1.00
S14    S     0.16381  -0.49459   0.50055   0.00000  Uiso   1.00
S15    S     0.25127  -0.65244   0.44920   0.00000  Uiso   1.00
S16    S     0.42566  -0.66621   0.41823   0.00000  Uiso   1.00
S17    S     0.42014  -0.59077   0.29550   0.00000  Uiso   1.00
S18    S     0.28927  -0.35743   0.47623   0.00000  Uiso   1.00
S19    S     0.27281  -0.47667   0.32746   0.00000  Uiso   1.00
S20    S     0.37936  -0.29323   0.26622   0.00000  Uiso   1.00
S21    S     0.36774  -0.45700   0.17569   0.00000  Uiso   1.00
S22    S     0.53611  -0.46820   0.25727   0.00000  Uiso   1.00
S23    S     0.68967  -0.48208   0.36393   0.00000  Uiso   1.00
S24    S     0.57715  -0.27923   0.52570   0.00000  Uiso   1.00
S25    S     0.36019  -0.65055   0.60320   0.00000  Uiso   1.00
S26    S     0.56042  -0.29906   0.31810   0.00000  Uiso   1.00
Au39   Au    0.49229  -0.66543   0.48501   0.00000  Uiso   1.00
Au40   Au    0.49219  -0.54695   0.48505   0.00000  Uiso   1.00
Au41   Au    0.49236  -0.28009   0.48436   0.00000  Uiso   1.00
Au42   Au    0.49213  -0.39884   0.48464   0.00000  Uiso   1.00
loop_
_geom_bond_atom_site_label_1
_geom_bond_atom_site_label_2
_geom_bond_distance
_geom_bond_site_symmetry_2
_ccdc_geom_bond_type
Au1    S2      2.357   .     S
Au1    S1      2.348   .     S
Au2    S12     2.353   .     S
Au2    S2      2.366   .     S
Au3    S3      2.479   .     S
Au4    S4      2.422   .     S
Au4    Au5     2.764   .     S
Au5    S25     2.432   .     S
Au7    Au9     2.756   .     S
Au7    S18     2.423   .     S
Au8    S10     2.350   .     S
Au8    S9      2.351   .     S
Au9    S13     2.431   .     S
Au10   S13     2.355   .     S
Au10   S7      2.362   .     S
Au11   Au14    2.728   .     S
Au11   Au12    2.781   .     S
Au11   S9      2.434   .     S
Au12   S24     2.478   .     S
Au13   S8      2.348   .     S
Au13   S7      2.352   .     S
Au14   S6      2.427   .     S
Au15   S8      2.351   .     S
Au15   S4      2.336   .     S
Au17   S23     2.443   .     S
Au17   Au18    2.729   .     S
Au18   S6      2.428   .     S
Au19   S1      2.353   .     S
Au19   S5      2.342   .     S
S3     Au39    2.359   .     S
S5     Au26    2.424   .     S
S10    Au36    2.442   .     S
S11    Au41    2.358   .     S
S11    Au31    2.477   .     S
S12    Au24    2.433   .     S
Au20   S15     2.358   .     S
Au20   S14     2.348   .     S
Au21   S15     2.366   .     S
Au21   S25     2.352   .     S
Au22   S16     2.480   .     S
Au23   S17     2.422   .     S
Au23   Au24    2.764   .     S
Au26   Au28    2.755   .     S
Au27   S23     2.350   .     S
Au27   S22     2.351   .     S
Au28   S26     2.430   .     S
Au29   S20     2.362   .     S
Au29   S26     2.355   .     S
Au30   Au33    2.728   .     S
Au30   S22     2.434   .     S
Au30   Au31    2.781   .     S
Au32   S21     2.348   .     S
Au32   S20     2.353   .     S
Au33   S19     2.426   .     S
Au34   S21     2.351   .     S
Au34   S17     2.336   .     S
Au36   Au37    2.728   .     S
Au37   S19     2.428   .     S
Au38   S14     2.353   .     S
Au38   S18     2.341   .     S
S16    Au39    2.359   .     S
S24    Au41    2.358   .     S
