data_42-26-B-ch3
_audit_creation_date              2022-11-25
_audit_creation_method            'Materials Studio'
_symmetry_space_group_name_H-M    'P1'
_symmetry_Int_Tables_number       1
_symmetry_cell_setting            triclinic
loop_
_symmetry_equiv_pos_as_xyz
  x,y,z
_cell_length_a                    25.0000
_cell_length_b                    25.0000
_cell_length_c                    25.0000
_cell_angle_alpha                 90.0000
_cell_angle_beta                  90.0000
_cell_angle_gamma                 90.0000
loop_
_atom_site_label
_atom_site_type_symbol
_atom_site_fract_x
_atom_site_fract_y
_atom_site_fract_z
_atom_site_U_iso_or_equiv
_atom_site_adp_type
_atom_site_occupancy
Au1    Au    0.55716  -0.58011   0.51807   0.00000  Uiso   1.00
Au2    Au    0.54703  -0.66662   0.43471   0.00000  Uiso   1.00
Au3    Au    0.46193  -0.58140   0.44799   0.00000  Uiso   1.00
Au4    Au    0.39028  -0.58477   0.53422   0.00000  Uiso   1.00
Au5    Au    0.49143  -0.59382   0.60790   0.00000  Uiso   1.00
Au6    Au    0.57675  -0.66958   0.57841   0.00000  Uiso   1.00
Au7    Au    0.47712  -0.67066   0.52736   0.00000  Uiso   1.00
Au8    Au    0.35857  -0.68460   0.46877   0.00000  Uiso   1.00
Au9    Au    0.36122  -0.59117   0.35857   0.00000  Uiso   1.00
Au10   Au    0.44786  -0.66884   0.38305   0.00000  Uiso   1.00
Au11   Au    0.52829  -0.58746   0.35735   0.00000  Uiso   1.00
Au12   Au    0.45603  -0.48923   0.36310   0.00000  Uiso   1.00
Au13   Au    0.46143  -0.41242   0.44548   0.00000  Uiso   1.00
Au14   Au    0.46672  -0.49843   0.53217   0.00000  Uiso   1.00
Au15   Au    0.55728  -0.49072   0.60695   0.00000  Uiso   1.00
Au16   Au    0.63543  -0.49862   0.51485   0.00000  Uiso   1.00
Au17   Au    0.62842  -0.57428   0.43159   0.00000  Uiso   1.00
Au18   Au    0.66672  -0.67476   0.49321   0.00000  Uiso   1.00
Au19   Au    0.65726  -0.58702   0.60778   0.00000  Uiso   1.00
Au20   Au    0.54635  -0.49370   0.43853   0.00000  Uiso   1.00
Au21   Au    0.54610  -0.41101   0.52781   0.00000  Uiso   1.00
Au22   Au    0.62488  -0.39598   0.44918   0.00000  Uiso   1.00
Au23   Au    0.60681  -0.32004   0.53703   0.00000  Uiso   1.00
Au24   Au    0.54053  -0.32193   0.44684   0.00000  Uiso   1.00
Au25   Au    0.53514  -0.40871   0.36119   0.00000  Uiso   1.00
Au26   Au    0.59030  -0.48741   0.28184   0.00000  Uiso   1.00
Au27   Au    0.46443  -0.31017   0.33790   0.00000  Uiso   1.00
Au28   Au    0.35768  -0.40470   0.36038   0.00000  Uiso   1.00
Au29   Au    0.39554  -0.32494   0.44036   0.00000  Uiso   1.00
Au30   Au    0.46069  -0.32574   0.53141   0.00000  Uiso   1.00
Au31   Au    0.38247  -0.40579   0.52466   0.00000  Uiso   1.00
Au32   Au    0.37816  -0.50586   0.45455   0.00000  Uiso   1.00
Au33   Au    0.31909  -0.50549   0.60038   0.00000  Uiso   1.00
Au34   Au    0.53693  -0.31395   0.64012   0.00000  Uiso   1.00
Au35   Au    0.47276  -0.41628   0.61258   0.00000  Uiso   1.00
Au36   Au    0.42150  -0.50213   0.68867   0.00000  Uiso   1.00
Au37   Au    0.64912  -0.40105   0.61393   0.00000  Uiso   1.00
Au38   Au    0.42575  -0.19472   0.46107   0.00000  Uiso   1.00
Au39   Au    0.56967  -0.19134   0.51964   0.00000  Uiso   1.00
Au40   Au    0.69567  -0.48785   0.36925   0.00000  Uiso   1.00
Au41   Au    0.47855  -0.79718   0.40799   0.00000  Uiso   1.00
Au42   Au    0.55790  -0.79911   0.54200   0.00000  Uiso   1.00
S1     S     0.41131  -0.74151   0.52205   0.00000  Uiso   1.00
S2     S     0.29917  -0.63709   0.41303   0.00000  Uiso   1.00
S3     S     0.61814  -0.73214   0.43684   0.00000  Uiso   1.00
S4     S     0.72246  -0.62718   0.55248   0.00000  Uiso   1.00
S5     S     0.60206  -0.54735   0.67315   0.00000  Uiso   1.00
S6     S     0.58416  -0.58101   0.27818   0.00000  Uiso   1.00
S7     S     0.59267  -0.39297   0.28252   0.00000  Uiso   1.00
S8     S     0.40078  -0.35986   0.28916   0.00000  Uiso   1.00
S9     S     0.30379  -0.45032   0.42291   0.00000  Uiso   1.00
S10    S     0.31358  -0.41206   0.59273   0.00000  Uiso   1.00
S11    S     0.32061  -0.59990   0.60259   0.00000  Uiso   1.00
S12    S     0.47298  -0.25814   0.59961   0.00000  Uiso   1.00
S13    S     0.43501  -0.59506   0.68686   0.00000  Uiso   1.00
S14    S     0.41436  -0.40800   0.69160   0.00000  Uiso   1.00
S15    S     0.60374  -0.36143   0.68672   0.00000  Uiso   1.00
S16    S     0.70587  -0.44004   0.54950   0.00000  Uiso   1.00
S17    S     0.35033  -0.24059   0.42793   0.00000  Uiso   1.00
S18    S     0.49819  -0.14013   0.48629   0.00000  Uiso   1.00
S19    S     0.64546  -0.23385   0.55611   0.00000  Uiso   1.00
S20    S     0.52360  -0.25204   0.38210   0.00000  Uiso   1.00
S21    S     0.69473  -0.39482   0.38209   0.00000  Uiso   1.00
S22    S     0.69796  -0.58199   0.36216   0.00000  Uiso   1.00
S23    S     0.41416  -0.54587   0.29505   0.00000  Uiso   1.00
S24    S     0.42781  -0.75348   0.34168   0.00000  Uiso   1.00
S25    S     0.52517  -0.85028   0.47007   0.00000  Uiso   1.00
S26    S     0.59910  -0.75595   0.61497   0.00000  Uiso   1.00
loop_
_geom_bond_atom_site_label_1
_geom_bond_atom_site_label_2
_geom_bond_distance
_geom_bond_site_symmetry_2
_ccdc_geom_bond_type
Au1    Au6     2.742   .     S
Au2    S3      2.418   .     S
Au3    Au10    2.746   .     S
Au4    S11     2.469   .     S
Au5    S13     2.426   .     S
Au6    S26     2.410   .     S
Au7    S1      2.421   .     S
Au8    S2      2.357   .     S
Au8    S1      2.353   .     S
Au9    S23     2.357   .     S
Au9    S2      2.362   .     S
Au10   S24     2.408   .     S
Au11   S6      2.428   .     S
Au12   S23     2.449   .     S
Au13   Au29    2.741   .     S
Au15   S5      2.449   .     S
Au16   S16     2.449   .     S
Au17   S22     2.464   .     S
Au18   S4      2.357   .     S
Au18   S3      2.349   .     S
Au19   S5      2.358   .     S
Au19   S4      2.361   .     S
Au21   Au23    2.744   .     S
Au22   S21     2.421   .     S
Au23   S19     2.409   .     S
Au24   S20     2.419   .     S
Au25   S7      2.468   .     S
Au26   S7      2.362   .     S
Au26   S6      2.347   .     S
Au27   S8      2.358   .     S
Au27   S20     2.350   .     S
Au28   S8      2.364   .     S
Au28   S9      2.358   .     S
Au29   S17     2.413   .     S
Au30   S12     2.420   .     S
Au31   S10     2.426   .     S
Au32   S9      2.452   .     S
Au33   S11     2.361   .     S
Au33   S10     2.347   .     S
Au34   S15     2.357   .     S
Au34   S12     2.351   .     S
Au35   S14     2.465   .     S
Au36   S13     2.348   .     S
Au36   S14     2.361   .     S
Au37   S15     2.362   .     S
Au37   S16     2.358   .     S
Au38   S17     2.357   .     S
Au38   S18     2.354   .     S
Au39   S19     2.356   .     S
Au39   S18     2.351   .     S
Au40   S22     2.361   .     S
Au40   S21     2.348   .     S
Au41   S25     2.351   .     S
Au41   S24     2.356   .     S
Au42   S25     2.354   .     S
Au42   S26     2.357   .     S
