data_43-25-ch3
_audit_creation_date              2022-11-25
_audit_creation_method            'Materials Studio'
_symmetry_space_group_name_H-M    'P1'
_symmetry_Int_Tables_number       1
_symmetry_cell_setting            triclinic
loop_
_symmetry_equiv_pos_as_xyz
  x,y,z
_cell_length_a                    25.0000
_cell_length_b                    25.0000
_cell_length_c                    25.0000
_cell_angle_alpha                 90.0000
_cell_angle_beta                  90.0000
_cell_angle_gamma                 90.0000
loop_
_atom_site_label
_atom_site_type_symbol
_atom_site_fract_x
_atom_site_fract_y
_atom_site_fract_z
_atom_site_U_iso_or_equiv
_atom_site_adp_type
_atom_site_occupancy
Au1    Au    0.56172  -0.50095   0.52990   0.00000  Uiso   1.00
Au2    Au    0.59392  -0.43025   0.43887   0.00000  Uiso   1.00
Au3    Au    0.49320  -0.40451   0.50403   0.00000  Uiso   1.00
Au4    Au    0.49386  -0.49118   0.42283   0.00000  Uiso   1.00
Au5    Au    0.39013  -0.47814   0.47550   0.00000  Uiso   1.00
Au6    Au    0.52707  -0.33342   0.42188   0.00000  Uiso   1.00
Au7    Au    0.54986  -0.41705   0.60264   0.00000  Uiso   1.00
Au8    Au    0.35176  -0.57059   0.55748   0.00000  Uiso   1.00
Au9    Au    0.59730  -0.51485   0.36599   0.00000  Uiso   1.00
Au10   Au    0.53759  -0.42266   0.34200   0.00000  Uiso   1.00
Au11   Au    0.65840  -0.52793   0.46916   0.00000  Uiso   1.00
Au12   Au    0.59923  -0.34077   0.51455   0.00000  Uiso   1.00
Au13   Au    0.66106  -0.43140   0.53609   0.00000  Uiso   1.00
Au14   Au    0.43702  -0.30805   0.48366   0.00000  Uiso   1.00
Au15   Au    0.43088  -0.39053   0.40570   0.00000  Uiso   1.00
Au16   Au    0.62311  -0.52337   0.63621   0.00000  Uiso   1.00
Au17   Au    0.55770  -0.58132   0.45180   0.00000  Uiso   1.00
Au18   Au    0.46100  -0.48534   0.58092   0.00000  Uiso   1.00
Au19   Au    0.48610  -0.30285   0.59208   0.00000  Uiso   1.00
Au20   Au    0.35373  -0.65539   0.48660   0.00000  Uiso   1.00
Au21   Au    0.30150  -0.56267   0.45826   0.00000  Uiso   1.00
Au22   Au    0.29569  -0.46712   0.53488   0.00000  Uiso   1.00
Au23   Au    0.44664  -0.57475   0.49179   0.00000  Uiso   1.00
Au24   Au    0.38271  -0.39409   0.55078   0.00000  Uiso   1.00
Au25   Au    0.62087  -0.60143   0.54337   0.00000  Uiso   1.00
Au26   Au    0.42722  -0.66717   0.57691   0.00000  Uiso   1.00
Au27   Au    0.32042  -0.39258   0.45526   0.00000  Uiso   1.00
Au28   Au    0.68343  -0.36813   0.44293   0.00000  Uiso   1.00
Au29   Au    0.70779  -0.45876   0.36179   0.00000  Uiso   1.00
Au30   Au    0.50379  -0.67236   0.49427   0.00000  Uiso   1.00
Au31   Au    0.62845  -0.34063   0.33324   0.00000  Uiso   1.00
Au32   Au    0.31503  -0.46435   0.35992   0.00000  Uiso   1.00
Au33   Au    0.51216  -0.59792   0.58181   0.00000  Uiso   1.00
Au34   Au    0.57779  -0.65239   0.36574   0.00000  Uiso   1.00
Au35   Au    0.40254  -0.55081   0.39113   0.00000  Uiso   1.00
Au36   Au    0.57235  -0.73784   0.56801   0.00000  Uiso   1.00
Au37   Au    0.66551  -0.34213   0.64438   0.00000  Uiso   1.00
Au38   Au    0.29336  -0.67982   0.59381   0.00000  Uiso   1.00
Au39   Au    0.45924  -0.50804   0.27635   0.00000  Uiso   1.00
Au40   Au    0.43388  -0.76985   0.51369   0.00000  Uiso   1.00
Au41   Au    0.75451  -0.31263   0.52744   0.00000  Uiso   1.00
Au42   Au    0.21899  -0.57385   0.55783   0.00000  Uiso   1.00
Au43   Au    0.31804  -0.27106   0.45804   0.00000  Uiso   1.00
S1     S     0.58107  -0.36532   0.67842   0.00000  Uiso   1.00
S2     S     0.54801  -0.57000   0.66886   0.00000  Uiso   1.00
S3     S     0.70009  -0.47237   0.61542   0.00000  Uiso   1.00
S4     S     0.75236  -0.31396   0.62114   0.00000  Uiso   1.00
S5     S     0.76221  -0.31199   0.43294   0.00000  Uiso   1.00
S6     S     0.56973  -0.26547   0.56766   0.00000  Uiso   1.00
S7     S     0.40149  -0.33219   0.62265   0.00000  Uiso   1.00
S8     S     0.38191  -0.51425   0.63157   0.00000  Uiso   1.00
S9     S     0.21197  -0.48247   0.57950   0.00000  Uiso   1.00
S10    S     0.36818  -0.69626   0.64845   0.00000  Uiso   1.00
S11    S     0.21596  -0.66674   0.54129   0.00000  Uiso   1.00
S12    S     0.65243  -0.68818   0.57204   0.00000  Uiso   1.00
S13    S     0.74325  -0.52200   0.42207   0.00000  Uiso   1.00
S14    S     0.68527  -0.40197   0.29001   0.00000  Uiso   1.00
S15    S     0.57464  -0.27061   0.36603   0.00000  Uiso   1.00
S16    S     0.61385  -0.58917   0.30619   0.00000  Uiso   1.00
S17    S     0.54097  -0.72196   0.41681   0.00000  Uiso   1.00
S18    S     0.36427  -0.74623   0.45440   0.00000  Uiso   1.00
S19    S     0.50206  -0.80133   0.57145   0.00000  Uiso   1.00
S20    S     0.41507  -0.58703   0.30218   0.00000  Uiso   1.00
S21    S     0.50215  -0.42758   0.25137   0.00000  Uiso   1.00
S22    S     0.38120  -0.40730   0.32413   0.00000  Uiso   1.00
S23    S     0.24967  -0.52790   0.38481   0.00000  Uiso   1.00
S24    S     0.24966  -0.32922   0.42934   0.00000  Uiso   1.00
S25    S     0.39184  -0.22152   0.48822   0.00000  Uiso   1.00
loop_
_geom_bond_atom_site_label_1
_geom_bond_atom_site_label_2
_geom_bond_distance
_geom_bond_site_symmetry_2
_ccdc_geom_bond_type
Au2    Au28    2.726   .     S
Au6    S15     2.414   .     S
Au7    S1      2.423   .     S
Au8    Au20    2.763   .     S
Au8    S8      2.446   .     S
Au9    S16     2.420   .     S
Au10   S21     2.436   .     S
Au11   S13     2.431   .     S
Au11   Au25    2.775   .     S
Au12   S6      2.419   .     S
Au13   S3      2.436   .     S
Au14   S25     2.443   .     S
Au15   S22     2.424   .     S
Au16   S2      2.356   .     S
Au16   S3      2.367   .     S
Au18   S8      2.457   .     S
Au19   S6      2.370   .     S
Au19   S7      2.366   .     S
Au20   Au21    2.753   .     S
Au20   S18     2.424   .     S
Au21   S23     2.409   .     S
Au22   S9      2.403   .     S
Au24   S7      2.417   .     S
Au25   S12     2.417   .     S
Au26   Au33    2.742   .     S
Au26   S10     2.430   .     S
Au27   S24     2.461   .     S
Au28   S5      2.431   .     S
Au29   S14     2.357   .     S
Au29   S13     2.357   .     S
Au30   S17     2.480   .     S
Au31   S15     2.355   .     S
Au31   S14     2.353   .     S
Au32   S22     2.360   .     S
Au32   S23     2.362   .     S
Au33   S2      2.455   .     S
Au34   S16     2.351   .     S
Au34   S17     2.346   .     S
Au35   S20     2.421   .     S
Au36   S19     2.369   .     S
Au36   S12     2.358   .     S
Au37   S1      2.349   .     S
Au37   S4      2.355   .     S
Au38   S11     2.361   .     S
Au38   S10     2.353   .     S
Au39   S20     2.353   .     S
Au39   S21     2.364   .     S
Au40   S19     2.368   .     S
Au40   S18     2.361   .     S
Au41   S5      2.371   .     S
Au41   S4      2.343   .     S
Au42   S9      2.355   .     S
Au42   S11     2.360   .     S
Au43   S24     2.356   .     S
Au43   S25     2.347   .     S
