data_44-28-ch3
_audit_creation_date              2022-11-25
_audit_creation_method            'Materials Studio'
_symmetry_space_group_name_H-M    'P1'
_symmetry_Int_Tables_number       1
_symmetry_cell_setting            triclinic
loop_
_symmetry_equiv_pos_as_xyz
  x,y,z
_cell_length_a                    20.0000
_cell_length_b                    20.0000
_cell_length_c                    20.0000
_cell_angle_alpha                 90.0000
_cell_angle_beta                  90.0000
_cell_angle_gamma                 90.0000
loop_
_atom_site_label
_atom_site_type_symbol
_atom_site_fract_x
_atom_site_fract_y
_atom_site_fract_z
_atom_site_U_iso_or_equiv
_atom_site_adp_type
_atom_site_occupancy
Au1    Au    0.58758  -0.42067   0.47538   0.00000  Uiso   1.00
Au2    Au    0.62037  -0.56760   0.48104   0.00000  Uiso   1.00
Au3    Au    0.54060  -0.65983   0.55017   0.00000  Uiso   1.00
Au4    Au    0.43805  -0.77837   0.47626   0.00000  Uiso   1.00
Au5    Au    0.29964  -0.71788   0.38758   0.00000  Uiso   1.00
Au6    Au    0.28782  -0.55008   0.40287   0.00000  Uiso   1.00
Au7    Au    0.51814  -0.66345   0.40187   0.00000  Uiso   1.00
Au8    Au    0.65953  -0.73419   0.47256   0.00000  Uiso   1.00
Au9    Au    0.75731  -0.62213   0.57042   0.00000  Uiso   1.00
Au10   Au    0.70414  -0.46266   0.55221   0.00000  Uiso   1.00
Au11   Au    0.61788  -0.56755   0.62259   0.00000  Uiso   1.00
Au12   Au    0.72052  -0.47120   0.74158   0.00000  Uiso   1.00
Au13   Au    0.76071  -0.30646   0.66581   0.00000  Uiso   1.00
Au14   Au    0.67213  -0.32772   0.53817   0.00000  Uiso   1.00
Au15   Au    0.59048  -0.42083   0.33419   0.00000  Uiso   1.00
Au16   Au    0.71533  -0.47448   0.20559   0.00000  Uiso   1.00
Au17   Au    0.81755  -0.60810   0.28033   0.00000  Uiso   1.00
Au18   Au    0.73375  -0.61956   0.41797   0.00000  Uiso   1.00
Au19   Au    0.62449  -0.57309   0.33822   0.00000  Uiso   1.00
Au20   Au    0.58860  -0.41362   0.61703   0.00000  Uiso   1.00
S1     S     0.49193  -0.76860   0.58041   0.00000  Uiso   1.00
S2     S     0.38102  -0.80287   0.37531   0.00000  Uiso   1.00
S3     S     0.20974  -0.64272   0.39829   0.00000  Uiso   1.00
S4     S     0.60606  -0.74345   0.36825   0.00000  Uiso   1.00
S5     S     0.71785  -0.73377   0.57500   0.00000  Uiso   1.00
S6     S     0.80718  -0.51664   0.58553   0.00000  Uiso   1.00
S7     S     0.65946  -0.57082   0.73740   0.00000  Uiso   1.00
S8     S     0.78342  -0.37368   0.75873   0.00000  Uiso   1.00
S9     S     0.74097  -0.23429   0.57481   0.00000  Uiso   1.00
S10    S     0.62499  -0.40134   0.21828   0.00000  Uiso   1.00
S11    S     0.80744  -0.54388   0.18288   0.00000  Uiso   1.00
S12    S     0.83403  -0.67391   0.37662   0.00000  Uiso   1.00
S13    S     0.59150  -0.58911   0.22279   0.00000  Uiso   1.00
S14    S     0.55413  -0.41334   0.73272   0.00000  Uiso   1.00
Au21   Au    0.40959  -0.61271   0.47453   0.00000  Uiso   1.00
Au22   Au    0.37686  -0.46577   0.48067   0.00000  Uiso   1.00
Au23   Au    0.45588  -0.37373   0.55066   0.00000  Uiso   1.00
Au24   Au    0.55880  -0.25476   0.47718   0.00000  Uiso   1.00
Au25   Au    0.69759  -0.31468   0.38944   0.00000  Uiso   1.00
Au26   Au    0.70977  -0.48265   0.40400   0.00000  Uiso   1.00
Au27   Au    0.47913  -0.36946   0.40283   0.00000  Uiso   1.00
Au28   Au    0.33721  -0.29895   0.47284   0.00000  Uiso   1.00
Au29   Au    0.23951  -0.41167   0.57000   0.00000  Uiso   1.00
Au30   Au    0.29260  -0.57073   0.55092   0.00000  Uiso   1.00
Au31   Au    0.37880  -0.46662   0.62230   0.00000  Uiso   1.00
Au32   Au    0.27643  -0.56344   0.74121   0.00000  Uiso   1.00
Au33   Au    0.23567  -0.72728   0.66405   0.00000  Uiso   1.00
Au34   Au    0.32422  -0.70564   0.53637   0.00000  Uiso   1.00
Au35   Au    0.40700  -0.61202   0.33328   0.00000  Uiso   1.00
Au36   Au    0.28335  -0.55652   0.20371   0.00000  Uiso   1.00
Au37   Au    0.18075  -0.42360   0.27849   0.00000  Uiso   1.00
Au38   Au    0.26359  -0.41338   0.41775   0.00000  Uiso   1.00
Au39   Au    0.37327  -0.45932   0.33802   0.00000  Uiso   1.00
Au40   Au    0.40771  -0.62042   0.61609   0.00000  Uiso   1.00
S15    S     0.50457  -0.26508   0.58109   0.00000  Uiso   1.00
S16    S     0.61583  -0.23020   0.37628   0.00000  Uiso   1.00
S17    S     0.78755  -0.38964   0.40080   0.00000  Uiso   1.00
S18    S     0.39121  -0.28940   0.36880   0.00000  Uiso   1.00
S19    S     0.27882  -0.30001   0.57527   0.00000  Uiso   1.00
S20    S     0.18941  -0.51719   0.58455   0.00000  Uiso   1.00
S21    S     0.33682  -0.46345   0.73708   0.00000  Uiso   1.00
S22    S     0.21448  -0.66163   0.75846   0.00000  Uiso   1.00
S23    S     0.25369  -0.79831   0.57200   0.00000  Uiso   1.00
S24    S     0.37288  -0.63041   0.21718   0.00000  Uiso   1.00
S25    S     0.19233  -0.48602   0.17989   0.00000  Uiso   1.00
S26    S     0.16314  -0.35991   0.37596   0.00000  Uiso   1.00
S27    S     0.40672  -0.44270   0.22282   0.00000  Uiso   1.00
S28    S     0.44180  -0.62116   0.73193   0.00000  Uiso   1.00
Au41   Au    0.49861  -0.51641   0.39945   0.00000  Uiso   1.00
Au42   Au    0.49840  -0.51688   0.55307   0.00000  Uiso   1.00
Au43   Au    0.49910  -0.51596   0.23121   0.00000  Uiso   1.00
Au44   Au    0.49786  -0.51717   0.72402   0.00000  Uiso   1.00
loop_
_geom_bond_atom_site_label_1
_geom_bond_atom_site_label_2
_geom_bond_distance
_geom_bond_site_symmetry_2
_ccdc_geom_bond_type
Au3    S1      2.459   .     S
Au4    S1      2.353   .     S
Au4    S2      2.370   .     S
Au5    S2      2.366   .     S
Au5    S3      2.353   .     S
Au6    S3      2.425   .     S
Au7    S4      2.471   .     S
Au8    S5      2.358   .     S
Au8    S4      2.352   .     S
Au9    S5      2.370   .     S
Au9    S6      2.353   .     S
Au10   S6      2.420   .     S
Au11   S7      2.443   .     S
Au12   S8      2.346   .     S
Au12   S7      2.338   .     S
Au13   S9      2.356   .     S
Au13   S8      2.338   .     S
Au14   S9      2.434   .     S
Au15   S10     2.450   .     S
Au16   S10     2.339   .     S
Au16   S11     2.351   .     S
Au17   S11     2.343   .     S
Au17   S12     2.356   .     S
Au18   S12     2.427   .     S
Au19   S13     2.422   .     S
Au20   S14     2.414   .     S
S13    Au43    2.363   .     S
S14    Au44    2.368   .     S
Au23   S15     2.458   .     S
Au24   S15     2.353   .     S
Au24   S16     2.370   .     S
Au25   S16     2.366   .     S
Au25   S17     2.353   .     S
Au26   S17     2.426   .     S
Au27   S18     2.474   .     S
Au28   S19     2.358   .     S
Au28   S18     2.352   .     S
Au29   S19     2.370   .     S
Au29   S20     2.354   .     S
Au30   S20     2.420   .     S
Au31   S21     2.445   .     S
Au32   S22     2.347   .     S
Au32   S21     2.338   .     S
Au33   S23     2.353   .     S
Au33   S22     2.339   .     S
Au34   S23     2.436   .     S
Au35   S24     2.448   .     S
Au36   S24     2.337   .     S
Au36   S25     2.351   .     S
Au37   S25     2.345   .     S
Au37   S26     2.355   .     S
Au38   S26     2.424   .     S
Au39   S27     2.422   .     S
Au40   S28     2.415   .     S
S27    Au43    2.364   .     S
S28    Au44    2.368   .     S
