data_48-28-ch3
_audit_creation_date              2022-11-25
_audit_creation_method            'Materials Studio'
_symmetry_space_group_name_H-M    'P1'
_symmetry_Int_Tables_number       1
_symmetry_cell_setting            triclinic
loop_
_symmetry_equiv_pos_as_xyz
  x,y,z
_cell_length_a                    20.0000
_cell_length_b                    20.0000
_cell_length_c                    20.0000
_cell_angle_alpha                 90.0000
_cell_angle_beta                  90.0000
_cell_angle_gamma                 90.0000
loop_
_atom_site_label
_atom_site_type_symbol
_atom_site_fract_x
_atom_site_fract_y
_atom_site_fract_z
_atom_site_U_iso_or_equiv
_atom_site_adp_type
_atom_site_occupancy
Au1    Au    0.59431  -0.57402   0.43609   0.00000  Uiso   1.00
Au2    Au    0.41123  -0.47039   0.41180   0.00000  Uiso   1.00
Au3    Au    0.47202  -0.37814   0.51135   0.00000  Uiso   1.00
Au4    Au    0.46322  -0.33977   0.36485   0.00000  Uiso   1.00
Au5    Au    0.55094  -0.44369   0.41107   0.00000  Uiso   1.00
Au6    Au    0.47743  -0.58202   0.35090   0.00000  Uiso   1.00
Au7    Au    0.48643  -0.52915   0.52123   0.00000  Uiso   1.00
Au8    Au    0.62987  -0.48449   0.55056   0.00000  Uiso   1.00
Au9    Au    0.35661  -0.46868   0.54740   0.00000  Uiso   1.00
Au10   Au    0.22653  -0.63988   0.38884   0.00000  Uiso   1.00
Au11   Au    0.56403  -0.82585   0.39552   0.00000  Uiso   1.00
Au12   Au    0.22036  -0.39823   0.55816   0.00000  Uiso   1.00
Au13   Au    0.62198  -0.54420   0.69765   0.00000  Uiso   1.00
Au14   Au    0.51099  -0.26575   0.24519   0.00000  Uiso   1.00
Au15   Au    0.72169  -0.76633   0.32903   0.00000  Uiso   1.00
Au16   Au    0.74018  -0.38476   0.55367   0.00000  Uiso   1.00
Au17   Au    0.75444  -0.30794   0.41981   0.00000  Uiso   1.00
Au18   Au    0.39809  -0.20424   0.69761   0.00000  Uiso   1.00
Au19   Au    0.41775  -0.13605   0.52686   0.00000  Uiso   1.00
Au20   Au    0.58586  -0.61984   0.57275   0.00000  Uiso   1.00
Au21   Au    0.65713  -0.20219   0.53643   0.00000  Uiso   1.00
Au22   Au    0.61448  -0.34983   0.50849   0.00000  Uiso   1.00
Au23   Au    0.84827  -0.49669   0.54224   0.00000  Uiso   1.00
Au24   Au    0.34283  -0.55066   0.31456   0.00000  Uiso   1.00
Au25   Au    0.53575  -0.31181   0.76662   0.00000  Uiso   1.00
Au26   Au    0.33591  -0.35941   0.46102   0.00000  Uiso   1.00
Au27   Au    0.47098  -0.44857   0.27390   0.00000  Uiso   1.00
Au28   Au    0.34520  -0.39814   0.30671   0.00000  Uiso   1.00
Au29   Au    0.64283  -0.71108   0.46084   0.00000  Uiso   1.00
Au30   Au    0.50074  -0.67938   0.45165   0.00000  Uiso   1.00
Au31   Au    0.27138  -0.49419   0.42343   0.00000  Uiso   1.00
Au32   Au    0.58823  -0.68461   0.33393   0.00000  Uiso   1.00
Au33   Au    0.69073  -0.47004   0.40705   0.00000  Uiso   1.00
Au34   Au    0.61345  -0.32136   0.37176   0.00000  Uiso   1.00
Au35   Au    0.71628  -0.58993   0.51096   0.00000  Uiso   1.00
Au36   Au    0.37634  -0.60337   0.45312   0.00000  Uiso   1.00
Au37   Au    0.35181  -0.24581   0.33054   0.00000  Uiso   1.00
Au38   Au    0.60428  -0.52454   0.30047   0.00000  Uiso   1.00
Au39   Au    0.70718  -0.60462   0.35758   0.00000  Uiso   1.00
Au40   Au    0.45482  -0.65498   0.22127   0.00000  Uiso   1.00
Au41   Au    0.52861  -0.25111   0.46109   0.00000  Uiso   1.00
Au42   Au    0.20390  -0.50129   0.27961   0.00000  Uiso   1.00
Au43   Au    0.70812  -0.68580   0.62570   0.00000  Uiso   1.00
Au44   Au    0.63520  -0.37939   0.64489   0.00000  Uiso   1.00
Au45   Au    0.51200  -0.27813   0.61082   0.00000  Uiso   1.00
Au46   Au    0.41669  -0.61313   0.62534   0.00000  Uiso   1.00
Au47   Au    0.38194  -0.33034   0.60871   0.00000  Uiso   1.00
Au48   Au    0.49168  -0.41296   0.64859   0.00000  Uiso   1.00
S1     S     0.36373  -0.11521   0.62858   0.00000  Uiso   1.00
S2     S     0.72900  -0.19478   0.44335   0.00000  Uiso   1.00
S3     S     0.42423  -0.27903   0.78513   0.00000  Uiso   1.00
S4     S     0.64562  -0.35424   0.76322   0.00000  Uiso   1.00
S5     S     0.85530  -0.39081   0.59228   0.00000  Uiso   1.00
S6     S     0.29751  -0.24731   0.43530   0.00000  Uiso   1.00
S7     S     0.54681  -0.50349   0.19536   0.00000  Uiso   1.00
S8     S     0.50986  -0.51113   0.71541   0.00000  Uiso   1.00
S9     S     0.34347  -0.61908   0.21325   0.00000  Uiso   1.00
S10    S     0.79569  -0.41275   0.38495   0.00000  Uiso   1.00
S11    S     0.33644  -0.53043   0.65051   0.00000  Uiso   1.00
S12    S     0.26418  -0.31979   0.63442   0.00000  Uiso   1.00
S13    S     0.23084  -0.38733   0.26680   0.00000  Uiso   1.00
S14    S     0.16988  -0.61421   0.28854   0.00000  Uiso   1.00
S15    S     0.79052  -0.67301   0.30478   0.00000  Uiso   1.00
S16    S     0.16828  -0.47649   0.48680   0.00000  Uiso   1.00
S17    S     0.50051  -0.69593   0.62138   0.00000  Uiso   1.00
S18    S     0.45863  -0.79438   0.43907   0.00000  Uiso   1.00
S19    S     0.56418  -0.69830   0.21593   0.00000  Uiso   1.00
S20    S     0.83550  -0.59952   0.48839   0.00000  Uiso   1.00
S21    S     0.69800  -0.77653   0.55007   0.00000  Uiso   1.00
S22    S     0.27793  -0.66542   0.49152   0.00000  Uiso   1.00
S23    S     0.39985  -0.23262   0.22339   0.00000  Uiso   1.00
S24    S     0.62657  -0.28767   0.25576   0.00000  Uiso   1.00
S25    S     0.66201  -0.86689   0.34426   0.00000  Uiso   1.00
S26    S     0.47295  -0.14903   0.42464   0.00000  Uiso   1.00
S27    S     0.72994  -0.59389   0.69737   0.00000  Uiso   1.00
S28    S     0.59765  -0.19413   0.63709   0.00000  Uiso   1.00
loop_
_geom_bond_atom_site_label_1
_geom_bond_atom_site_label_2
_geom_bond_distance
_geom_bond_site_symmetry_2
_ccdc_geom_bond_type
Au9    S11     2.437   .     S
Au10   S14     2.360   .     S
Au10   S22     2.353   .     S
Au11   S18     2.366   .     S
Au11   S25     2.359   .     S
Au12   S16     2.360   .     S
Au12   S12     2.357   .     S
Au13   S8      2.365   .     S
Au13   S27     2.377   .     S
Au14   S24     2.362   .     S
Au14   S23     2.360   .     S
Au15   S15     2.369   .     S
Au15   S25     2.358   .     S
Au16   Au22    2.761   .     S
Au16   S5      2.431   .     S
Au17   S10     2.358   .     S
Au17   S2      2.367   .     S
Au18   S1      2.355   .     S
Au18   S3      2.361   .     S
Au19   S26     2.338   .     S
Au19   S1      2.341   .     S
Au20   S17     2.485   .     S
Au21   S2      2.356   .     S
Au21   S28     2.344   .     S
Au23   S5      2.346   .     S
Au23   S20     2.336   .     S
Au24   S9      2.445   .     S
Au25   S4      2.356   .     S
Au25   S3      2.354   .     S
Au26   S6      2.425   .     S
Au27   S7      2.444   .     S
Au28   S13     2.432   .     S
Au29   S21     2.473   .     S
Au30   S18     2.462   .     S
Au31   S16     2.446   .     S
Au32   S19     2.424   .     S
Au33   S10     2.432   .     S
Au34   S24     2.430   .     S
Au35   S20     2.434   .     S
Au36   S22     2.450   .     S
Au37   S23     2.363   .     S
Au37   S6      2.360   .     S
Au38   S7      2.433   .     S
Au39   S15     2.401   .     S
Au40   S9      2.345   .     S
Au40   S19     2.355   .     S
Au41   S26     2.437   .     S
Au42   S13     2.356   .     S
Au42   S14     2.365   .     S
Au43   S27     2.372   .     S
Au43   S21     2.371   .     S
Au44   S4      2.428   .     S
Au45   S28     2.456   .     S
Au46   S17     2.358   .     S
Au46   S11     2.359   .     S
Au47   S12     2.420   .     S
Au48   S8      2.403   .     S
