data_48-26-B-ch3
_audit_creation_date              2022-11-25
_audit_creation_method            'Materials Studio'
_symmetry_space_group_name_H-M    'P1'
_symmetry_Int_Tables_number       1
_symmetry_cell_setting            triclinic
loop_
_symmetry_equiv_pos_as_xyz
  x,y,z
_cell_length_a                    25.0000
_cell_length_b                    25.0000
_cell_length_c                    25.0000
_cell_angle_alpha                 90.0000
_cell_angle_beta                  90.0000
_cell_angle_gamma                 90.0000
loop_
_atom_site_label
_atom_site_type_symbol
_atom_site_fract_x
_atom_site_fract_y
_atom_site_fract_z
_atom_site_U_iso_or_equiv
_atom_site_adp_type
_atom_site_occupancy
Au1    Au    0.54686   0.52209   0.38706   0.00000  Uiso   1.00
Au2    Au    0.54521   0.40764   0.44593   0.00000  Uiso   1.00
Au3    Au    0.55840   0.62634   0.47421   0.00000  Uiso   1.00
Au4    Au    0.52690   0.42146   0.55756   0.00000  Uiso   1.00
Au5    Au    0.42372   0.38499   0.50841   0.00000  Uiso   1.00
Au6    Au    0.45795   0.58783   0.42019   0.00000  Uiso   1.00
Au7    Au    0.56016   0.51251   0.50207   0.00000  Uiso   1.00
Au8    Au    0.53622   0.41430   0.33257   0.00000  Uiso   1.00
Au9    Au    0.63362   0.42797   0.51062   0.00000  Uiso   1.00
Au10   Au    0.45663   0.48056   0.44897   0.00000  Uiso   1.00
Au11   Au    0.47808   0.58181   0.53915   0.00000  Uiso   1.00
Au12   Au    0.42209   0.48637   0.55710   0.00000  Uiso   1.00
Au13   Au    0.45703   0.42150   0.65107   0.00000  Uiso   1.00
Au14   Au    0.64688   0.55457   0.43505   0.00000  Uiso   1.00
Au15   Au    0.54313   0.63877   0.35764   0.00000  Uiso   1.00
Au16   Au    0.53480   0.53231   0.25711   0.00000  Uiso   1.00
Au17   Au    0.63837   0.45408   0.38496   0.00000  Uiso   1.00
Au18   Au    0.58414   0.59343   0.57698   0.00000  Uiso   1.00
Au19   Au    0.44779   0.50597   0.33854   0.00000  Uiso   1.00
Au20   Au    0.41994   0.67420   0.49210   0.00000  Uiso   1.00
Au21   Au    0.44702   0.37881   0.39056   0.00000  Uiso   1.00
Au22   Au    0.55538   0.37031   0.65302   0.00000  Uiso   1.00
Au23   Au    0.51539   0.31222   0.51327   0.00000  Uiso   1.00
Au24   Au    0.55335   0.48334   0.64911   0.00000  Uiso   1.00
Au25   Au    0.63298   0.55128   0.32391   0.00000  Uiso   1.00
Au26   Au    0.34878   0.59485   0.45392   0.00000  Uiso   1.00
Au27   Au    0.51627   0.72004   0.43311   0.00000  Uiso   1.00
Au28   Au    0.43548   0.31610   0.59467   0.00000  Uiso   1.00
Au29   Au    0.39498   0.67252   0.38449   0.00000  Uiso   1.00
Au30   Au    0.53938   0.31391   0.38703   0.00000  Uiso   1.00
Au31   Au    0.64400   0.32522   0.44485   0.00000  Uiso   1.00
Au32   Au    0.67097   0.66249   0.52349   0.00000  Uiso   1.00
Au33   Au    0.36829   0.60103   0.28772   0.00000  Uiso   1.00
Au34   Au    0.34888   0.46137   0.47525   0.00000  Uiso   1.00
Au35   Au    0.67522   0.36635   0.61608   0.00000  Uiso   1.00
Au36   Au    0.62567   0.68922   0.41307   0.00000  Uiso   1.00
Au37   Au    0.45018   0.54795   0.64455   0.00000  Uiso   1.00
Au38   Au    0.37251   0.58735   0.57225   0.00000  Uiso   1.00
Au39   Au    0.54269   0.72014   0.56087   0.00000  Uiso   1.00
Au40   Au    0.46714   0.20404   0.40133   0.00000  Uiso   1.00
Au41   Au    0.70112   0.66110   0.31474   0.00000  Uiso   1.00
Au42   Au    0.41266   0.27618   0.48948   0.00000  Uiso   1.00
Au43   Au    0.38367   0.77902   0.43496   0.00000  Uiso   1.00
Au44   Au    0.29810   0.69353   0.51652   0.00000  Uiso   1.00
Au45   Au    0.47638   0.33160   0.73320   0.00000  Uiso   1.00
Au46   Au    0.48899   0.47534   0.75979   0.00000  Uiso   1.00
Au47   Au    0.32674   0.38304   0.59340   0.00000  Uiso   1.00
Au48   Au    0.32141   0.34593   0.44992   0.00000  Uiso   1.00
S1     S     0.71536   0.58383   0.49605   0.00000  Uiso   1.00
S2     S     0.69233   0.37412   0.37974   0.00000  Uiso   1.00
S3     S     0.60616   0.56212   0.66550   0.00000  Uiso   1.00
S4     S     0.60618   0.27915   0.51823   0.00000  Uiso   1.00
S5     S     0.62673   0.30736   0.67119   0.00000  Uiso   1.00
S6     S     0.51052   0.62306   0.26741   0.00000  Uiso   1.00
S7     S     0.71836   0.42623   0.55825   0.00000  Uiso   1.00
S8     S     0.56248   0.44273   0.24406   0.00000  Uiso   1.00
S9     S     0.36557   0.50747   0.28649   0.00000  Uiso   1.00
S10    S     0.35601   0.36115   0.36319   0.00000  Uiso   1.00
S11    S     0.37351   0.69521   0.29247   0.00000  Uiso   1.00
S12    S     0.70391   0.73298   0.37570   0.00000  Uiso   1.00
S13    S     0.29077   0.63552   0.59056   0.00000  Uiso   1.00
S14    S     0.54571   0.22342   0.35334   0.00000  Uiso   1.00
S15    S     0.36041   0.43238   0.66645   0.00000  Uiso   1.00
S16    S     0.44993   0.71457   0.57648   0.00000  Uiso   1.00
S17    S     0.47308   0.80577   0.42103   0.00000  Uiso   1.00
S18    S     0.69292   0.58742   0.25689   0.00000  Uiso   1.00
S19    S     0.28325   0.52490   0.44431   0.00000  Uiso   1.00
S20    S     0.38885   0.18985   0.45187   0.00000  Uiso   1.00
S21    S     0.46093   0.56307   0.73927   0.00000  Uiso   1.00
S22    S     0.63498   0.73963   0.56402   0.00000  Uiso   1.00
S23    S     0.43389   0.26761   0.67839   0.00000  Uiso   1.00
S24    S     0.51741   0.39161   0.79344   0.00000  Uiso   1.00
S25    S     0.29269   0.75644   0.44612   0.00000  Uiso   1.00
S26    S     0.27322   0.33678   0.53076   0.00000  Uiso   1.00
loop_
_geom_bond_atom_site_label_1
_geom_bond_atom_site_label_2
_geom_bond_distance
_geom_bond_site_symmetry_2
_ccdc_geom_bond_type
Au1    Au25    2.768   .     S
Au2    Au30    2.771   .     S
Au3    Au36    2.763   .     S
Au3    Au27    2.766   .     S
Au3    Au18    2.774   .     S
Au5    Au42    2.775   .     S
Au5    Au28    2.776   .     S
Au6    Au10    2.777   .     S
Au8    S8      2.415   .     S
Au9    S7      2.431   .     S
Au11   Au38    2.769   .     S
Au12   Au37    2.765   .     S
Au13   S15     2.461   .     S
Au13   Au22    2.772   .     S
Au14   S1      2.407   .     S
Au15   S6      2.431   .     S
Au16   S6      2.362   .     S
Au16   S8      2.367   .     S
Au17   S2      2.415   .     S
Au18   S3      2.411   .     S
Au19   S9      2.433   .     S
Au20   Au29    2.762   .     S
Au20   S16     2.456   .     S
Au21   S10     2.417   .     S
Au22   S5      2.422   .     S
Au23   S4      2.419   .     S
Au24   S3      2.406   .     S
Au25   S18     2.423   .     S
Au26   S19     2.408   .     S
Au27   S17     2.419   .     S
Au28   S23     2.419   .     S
Au29   S11     2.429   .     S
Au30   S14     2.419   .     S
Au31   S2      2.367   .     S
Au31   S4      2.363   .     S
Au32   S22     2.357   .     S
Au32   S1      2.360   .     S
Au33   S9      2.340   .     S
Au33   S11     2.361   .     S
Au34   S19     2.411   .     S
Au35   S7      2.344   .     S
Au35   S5      2.354   .     S
Au36   S12     2.428   .     S
Au37   S21     2.413   .     S
Au38   S13     2.416   .     S
Au39   S16     2.356   .     S
Au39   S22     2.359   .     S
Au40   S14     2.352   .     S
Au40   S20     2.357   .     S
Au41   S12     2.357   .     S
Au41   S18     2.351   .     S
Au42   S20     2.428   .     S
Au43   S17     2.359   .     S
Au43   S25     2.360   .     S
Au44   S25     2.364   .     S
Au44   S13     2.359   .     S
Au45   S23     2.359   .     S
Au45   S24     2.360   .     S
Au46   S24     2.365   .     S
Au46   S21     2.359   .     S
Au47   S26     2.362   .     S
Au47   S15     2.359   .     S
Au48   S10     2.365   .     S
Au48   S26     2.364   .     S
