data_52-32-B-ch3
_audit_creation_date              2022-11-25
_audit_creation_method            'Materials Studio'
_symmetry_space_group_name_H-M    'P1'
_symmetry_Int_Tables_number       1
_symmetry_cell_setting            triclinic
loop_
_symmetry_equiv_pos_as_xyz
  x,y,z
_cell_length_a                    25.0000
_cell_length_b                    25.0000
_cell_length_c                    25.0000
_cell_angle_alpha                 90.0000
_cell_angle_beta                  90.0000
_cell_angle_gamma                 90.0000
loop_
_atom_site_label
_atom_site_type_symbol
_atom_site_fract_x
_atom_site_fract_y
_atom_site_fract_z
_atom_site_U_iso_or_equiv
_atom_site_adp_type
_atom_site_occupancy
Au1    Au    0.42190  -0.58830   0.38775   0.00000  Uiso   1.00
Au2    Au    0.34511  -0.60640   0.48626   0.00000  Uiso   1.00
Au3    Au    0.43934  -0.67342   0.45832   0.00000  Uiso   1.00
Au4    Au    0.50844  -0.65871   0.37386   0.00000  Uiso   1.00
Au5    Au    0.49758  -0.56851   0.29295   0.00000  Uiso   1.00
Au6    Au    0.39462  -0.50877   0.30791   0.00000  Uiso   1.00
Au7    Au    0.32613  -0.52763   0.39415   0.00000  Uiso   1.00
Au8    Au    0.41742  -0.51008   0.48066   0.00000  Uiso   1.00
Au9    Au    0.49837  -0.49306   0.38141   0.00000  Uiso   1.00
Au10   Au    0.46785  -0.40428   0.28646   0.00000  Uiso   1.00
Au11   Au    0.40583  -0.42998   0.40431   0.00000  Uiso   1.00
Au12   Au    0.30754  -0.43631   0.48150   0.00000  Uiso   1.00
Au13   Au    0.41752  -0.43236   0.57652   0.00000  Uiso   1.00
Au14   Au    0.49582  -0.42038   0.47553   0.00000  Uiso   1.00
Au15   Au    0.57523  -0.39615   0.37880   0.00000  Uiso   1.00
Au16   Au    0.66028  -0.46856   0.36795   0.00000  Uiso   1.00
Au17   Au    0.67203  -0.55808   0.26247   0.00000  Uiso   1.00
Au18   Au    0.59389  -0.66535   0.26938   0.00000  Uiso   1.00
Au19   Au    0.35748  -0.70897   0.56094   0.00000  Uiso   1.00
Au20   Au    0.35244  -0.62182   0.66339   0.00000  Uiso   1.00
Au21   Au    0.44096  -0.51886   0.64532   0.00000  Uiso   1.00
Au22   Au    0.34022  -0.60740   0.31381   0.00000  Uiso   1.00
Au23   Au    0.33548  -0.70116   0.38539   0.00000  Uiso   1.00
Au24   Au    0.42749  -0.68501   0.28045   0.00000  Uiso   1.00
Au25   Au    0.28824  -0.41536   0.31859   0.00000  Uiso   1.00
Au26   Au    0.24496  -0.54454   0.26322   0.00000  Uiso   1.00
S1     S     0.73196  -0.51558   0.32136   0.00000  Uiso   1.00
S2     S     0.62026  -0.60689   0.20007   0.00000  Uiso   1.00
S3     S     0.57245  -0.72418   0.33934   0.00000  Uiso   1.00
S4     S     0.39162  -0.75545   0.33272   0.00000  Uiso   1.00
S5     S     0.42627  -0.75255   0.51375   0.00000  Uiso   1.00
S6     S     0.28888  -0.67150   0.61425   0.00000  Uiso   1.00
S7     S     0.41590  -0.57938   0.71784   0.00000  Uiso   1.00
S8     S     0.27356  -0.65140   0.43548   0.00000  Uiso   1.00
S9     S     0.24559  -0.48653   0.43127   0.00000  Uiso   1.00
S10    S     0.35784  -0.37166   0.52758   0.00000  Uiso   1.00
S11    S     0.35767  -0.36198   0.35175   0.00000  Uiso   1.00
S12    S     0.50599  -0.33741   0.34025   0.00000  Uiso   1.00
S13    S     0.42569  -0.46406   0.22730   0.00000  Uiso   1.00
S14    S     0.47024  -0.62756   0.21978   0.00000  Uiso   1.00
S15    S     0.27322  -0.63301   0.24705   0.00000  Uiso   1.00
S16    S     0.21274  -0.45898   0.28270   0.00000  Uiso   1.00
Au27   Au    0.58618  -0.40865   0.55127   0.00000  Uiso   1.00
Au28   Au    0.66219  -0.39366   0.45085   0.00000  Uiso   1.00
Au29   Au    0.56778  -0.32602   0.47861   0.00000  Uiso   1.00
Au30   Au    0.49807  -0.34038   0.56288   0.00000  Uiso   1.00
Au31   Au    0.50903  -0.43110   0.64483   0.00000  Uiso   1.00
Au32   Au    0.61184  -0.49090   0.62908   0.00000  Uiso   1.00
Au33   Au    0.68041  -0.47199   0.54301   0.00000  Uiso   1.00
Au34   Au    0.59106  -0.48982   0.45751   0.00000  Uiso   1.00
Au35   Au    0.51224  -0.50560   0.55506   0.00000  Uiso   1.00
Au36   Au    0.54058  -0.59619   0.65028   0.00000  Uiso   1.00
Au37   Au    0.60227  -0.57188   0.53249   0.00000  Uiso   1.00
Au38   Au    0.69922  -0.56486   0.45555   0.00000  Uiso   1.00
Au39   Au    0.59020  -0.56818   0.35964   0.00000  Uiso   1.00
Au40   Au    0.51216  -0.57977   0.46227   0.00000  Uiso   1.00
Au41   Au    0.43202  -0.60372   0.55852   0.00000  Uiso   1.00
Au42   Au    0.34671  -0.53156   0.56906   0.00000  Uiso   1.00
Au43   Au    0.33517  -0.44188   0.67371   0.00000  Uiso   1.00
Au44   Au    0.41309  -0.33410   0.66690   0.00000  Uiso   1.00
Au45   Au    0.65047  -0.29180   0.37598   0.00000  Uiso   1.00
Au46   Au    0.65546  -0.37866   0.27283   0.00000  Uiso   1.00
Au47   Au    0.56788  -0.48195   0.29000   0.00000  Uiso   1.00
Au48   Au    0.66849  -0.39387   0.62545   0.00000  Uiso   1.00
Au49   Au    0.67334  -0.30079   0.55170   0.00000  Uiso   1.00
Au50   Au    0.58050  -0.31565   0.65631   0.00000  Uiso   1.00
Au51   Au    0.72040  -0.58729   0.61749   0.00000  Uiso   1.00
Au52   Au    0.76450  -0.45809   0.67339   0.00000  Uiso   1.00
S17    S     0.27487  -0.48473   0.61547   0.00000  Uiso   1.00
S18    S     0.38685  -0.39284   0.73595   0.00000  Uiso   1.00
S19    S     0.43456  -0.27465   0.59742   0.00000  Uiso   1.00
S20    S     0.61740  -0.24585   0.60394   0.00000  Uiso   1.00
S21    S     0.58202  -0.24738   0.42288   0.00000  Uiso   1.00
S22    S     0.71890  -0.32949   0.32264   0.00000  Uiso   1.00
S23    S     0.59221  -0.42088   0.21793   0.00000  Uiso   1.00
S24    S     0.73507  -0.35031   0.50125   0.00000  Uiso   1.00
S25    S     0.76044  -0.51441   0.50635   0.00000  Uiso   1.00
S26    S     0.64989  -0.62920   0.40801   0.00000  Uiso   1.00
S27    S     0.65063  -0.64017   0.58429   0.00000  Uiso   1.00
S28    S     0.50159  -0.66251   0.59645   0.00000  Uiso   1.00
S29    S     0.58234  -0.53653   0.70983   0.00000  Uiso   1.00
S30    S     0.53664  -0.37173   0.71749   0.00000  Uiso   1.00
S31    S     0.73643  -0.36990   0.69141   0.00000  Uiso   1.00
S32    S     0.79615  -0.54362   0.65274   0.00000  Uiso   1.00
loop_
_geom_bond_atom_site_label_1
_geom_bond_atom_site_label_2
_geom_bond_distance
_geom_bond_site_symmetry_2
_ccdc_geom_bond_type
Au2    S8      2.465   .     S
Au3    Au4     2.753   .     S
Au3    S5      2.437   .     S
Au4    S3      2.446   .     S
Au5    S14     2.448   .     S
Au6    S13     2.432   .     S
Au7    S9      2.444   .     S
Au8    Au11    2.782   .     S
Au10   S12     2.348   .     S
Au10   S13     2.352   .     S
Au11   S11     2.463   .     S
Au12   S10     2.349   .     S
Au12   S9      2.356   .     S
Au13   S10     2.455   .     S
Au15   S12     2.466   .     S
Au16   S1      2.439   .     S
Au17   S1      2.354   .     S
Au17   S2      2.366   .     S
Au18   S3      2.347   .     S
Au18   S2      2.361   .     S
Au19   S5      2.353   .     S
Au19   S6      2.365   .     S
Au20   S6      2.362   .     S
Au20   S7      2.344   .     S
Au21   Au31    2.777   .     S
Au21   S7      2.443   .     S
Au22   S15     2.450   .     S
Au23   S8      2.348   .     S
Au23   S4      2.355   .     S
Au24   S4      2.369   .     S
Au24   S14     2.346   .     S
Au25   S16     2.357   .     S
Au25   S11     2.341   .     S
Au26   S16     2.337   .     S
Au26   S15     2.357   .     S
Au28   S24     2.466   .     S
Au29   Au30    2.758   .     S
Au29   S21     2.436   .     S
Au30   S19     2.443   .     S
Au31   S30     2.445   .     S
Au32   S29     2.433   .     S
Au33   S25     2.443   .     S
Au36   S28     2.347   .     S
Au36   S29     2.352   .     S
Au37   S27     2.460   .     S
Au38   S26     2.349   .     S
Au38   S25     2.355   .     S
Au39   S26     2.453   .     S
Au41   S28     2.467   .     S
Au42   S17     2.438   .     S
Au43   S17     2.354   .     S
Au43   S18     2.365   .     S
Au44   S19     2.348   .     S
Au44   S18     2.359   .     S
Au45   S21     2.353   .     S
Au45   S22     2.365   .     S
Au46   S22     2.362   .     S
Au46   S23     2.345   .     S
Au47   S23     2.439   .     S
Au48   S31     2.442   .     S
Au49   S24     2.346   .     S
Au49   S20     2.355   .     S
Au50   S20     2.369   .     S
Au50   S30     2.347   .     S
Au51   S32     2.357   .     S
Au51   S27     2.341   .     S
Au52   S32     2.338   .     S
Au52   S31     2.357   .     S
