data_52-32-A-ch3
_audit_creation_date              2022-11-25
_audit_creation_method            'Materials Studio'
_symmetry_space_group_name_H-M    'P1'
_symmetry_Int_Tables_number       1
_symmetry_cell_setting            triclinic
loop_
_symmetry_equiv_pos_as_xyz
  x,y,z
_cell_length_a                    25.0000
_cell_length_b                    25.0000
_cell_length_c                    25.0000
_cell_angle_alpha                 90.0000
_cell_angle_beta                  90.0000
_cell_angle_gamma                 90.0000
loop_
_atom_site_label
_atom_site_type_symbol
_atom_site_fract_x
_atom_site_fract_y
_atom_site_fract_z
_atom_site_U_iso_or_equiv
_atom_site_adp_type
_atom_site_occupancy
Au1    Au    0.52567  -0.53826   0.35659   0.00000  Uiso   1.00
Au2    Au    0.45013  -0.62198   0.35343   0.00000  Uiso   1.00
Au3    Au    0.44479  -0.54371   0.27240   0.00000  Uiso   1.00
Au4    Au    0.53157  -0.61472   0.27474   0.00000  Uiso   1.00
Au5    Au    0.62208  -0.62951   0.35081   0.00000  Uiso   1.00
Au6    Au    0.61926  -0.53530   0.24833   0.00000  Uiso   1.00
S1     S     0.68389  -0.58781   0.29286   0.00000  Uiso   1.00
S2     S     0.55176  -0.67839   0.20451   0.00000  Uiso   1.00
Au7    Au    0.50951  -0.36976   0.35454   0.00000  Uiso   1.00
Au8    Au    0.43666  -0.45620   0.35748   0.00000  Uiso   1.00
Au9    Au    0.51720  -0.44542   0.27195   0.00000  Uiso   1.00
Au10   Au    0.59866  -0.45156   0.36288   0.00000  Uiso   1.00
Au11   Au    0.62307  -0.34327   0.26085   0.00000  Uiso   1.00
Au12   Au    0.42728  -0.37833   0.27721   0.00000  Uiso   1.00
S3     S     0.55674  -0.48895   0.19548   0.00000  Uiso   1.00
S4     S     0.58818  -0.27300   0.20897   0.00000  Uiso   1.00
Au13   Au    0.36107  -0.54070   0.36137   0.00000  Uiso   1.00
Au14   Au    0.33552  -0.65309   0.26208   0.00000  Uiso   1.00
S5     S     0.29350  -0.57927   0.30174   0.00000  Uiso   1.00
S6     S     0.37001  -0.72499   0.21217   0.00000  Uiso   1.00
Au15   Au    0.33537  -0.36315   0.35040   0.00000  Uiso   1.00
Au16   Au    0.33951  -0.45748   0.24841   0.00000  Uiso   1.00
S7     S     0.27406  -0.40566   0.29256   0.00000  Uiso   1.00
S8     S     0.40334  -0.50224   0.19584   0.00000  Uiso   1.00
S9     S     0.40535  -0.31570   0.20627   0.00000  Uiso   1.00
Au17   Au    0.52002  -0.53683   0.53633   0.00000  Uiso   1.00
Au18   Au    0.43629  -0.61923   0.52731   0.00000  Uiso   1.00
Au19   Au    0.43928  -0.53892   0.44637   0.00000  Uiso   1.00
Au20   Au    0.52258  -0.61939   0.45626   0.00000  Uiso   1.00
Au21   Au    0.61205  -0.63307   0.54255   0.00000  Uiso   1.00
Au22   Au    0.60259  -0.53443   0.43902   0.00000  Uiso   1.00
S10    S     0.67059  -0.57365   0.49776   0.00000  Uiso   1.00
S11    S     0.56443  -0.68750   0.39805   0.00000  Uiso   1.00
Au23   Au    0.52135  -0.37155   0.52689   0.00000  Uiso   1.00
Au24   Au    0.43681  -0.45192   0.53618   0.00000  Uiso   1.00
Au25   Au    0.52075  -0.45296   0.44690   0.00000  Uiso   1.00
Au26   Au    0.60276  -0.45518   0.54621   0.00000  Uiso   1.00
Au27   Au    0.61292  -0.35924   0.44113   0.00000  Uiso   1.00
Au28   Au    0.43640  -0.37242   0.45406   0.00000  Uiso   1.00
S12    S     0.56902  -0.29837   0.38324   0.00000  Uiso   1.00
Au29   Au    0.35593  -0.53410   0.54343   0.00000  Uiso   1.00
Au30   Au    0.34631  -0.63212   0.44055   0.00000  Uiso   1.00
S13    S     0.28732  -0.57313   0.48522   0.00000  Uiso   1.00
S14    S     0.39075  -0.69294   0.38305   0.00000  Uiso   1.00
Au31   Au    0.34631  -0.35939   0.54135   0.00000  Uiso   1.00
Au32   Au    0.35609  -0.45694   0.43628   0.00000  Uiso   1.00
S15    S     0.28819  -0.41881   0.49597   0.00000  Uiso   1.00
S16    S     0.39343  -0.30458   0.39649   0.00000  Uiso   1.00
S17    S     0.67126  -0.41819   0.48674   0.00000  Uiso   1.00
Au33   Au    0.51463  -0.54464   0.70959   0.00000  Uiso   1.00
Au34   Au    0.42675  -0.61452   0.70696   0.00000  Uiso   1.00
Au35   Au    0.43367  -0.53785   0.62561   0.00000  Uiso   1.00
Au36   Au    0.50832  -0.62234   0.62818   0.00000  Uiso   1.00
Au37   Au    0.62306  -0.65001   0.72108   0.00000  Uiso   1.00
Au38   Au    0.59783  -0.54016   0.62010   0.00000  Uiso   1.00
S18    S     0.66572  -0.57732   0.68010   0.00000  Uiso   1.00
S19    S     0.56767  -0.69394   0.59999   0.00000  Uiso   1.00
Au39   Au    0.53115  -0.37815   0.70589   0.00000  Uiso   1.00
Au40   Au    0.44181  -0.44583   0.71028   0.00000  Uiso   1.00
Au41   Au    0.52214  -0.45527   0.62497   0.00000  Uiso   1.00
Au42   Au    0.61885  -0.45701   0.73391   0.00000  Uiso   1.00
Au43   Au    0.62226  -0.36267   0.63155   0.00000  Uiso   1.00
Au44   Au    0.44887  -0.36932   0.62829   0.00000  Uiso   1.00
S20    S     0.56419  -0.30425   0.58522   0.00000  Uiso   1.00
Au45   Au    0.33882  -0.53488   0.73366   0.00000  Uiso   1.00
Au46   Au    0.33581  -0.62921   0.63162   0.00000  Uiso   1.00
S21    S     0.27396  -0.58723   0.68930   0.00000  Uiso   1.00
S22    S     0.39380  -0.68735   0.58496   0.00000  Uiso   1.00
Au47   Au    0.33529  -0.34300   0.72158   0.00000  Uiso   1.00
Au48   Au    0.35952  -0.45198   0.62044   0.00000  Uiso   1.00
S23    S     0.29138  -0.41453   0.67991   0.00000  Uiso   1.00
S24    S     0.38974  -0.29795   0.59898   0.00000  Uiso   1.00
S25    S     0.68379  -0.40459   0.68967   0.00000  Uiso   1.00
S26    S     0.66659  -0.41504   0.30253   0.00000  Uiso   1.00
S27    S     0.40544  -0.67860   0.77658   0.00000  Uiso   1.00
S28    S     0.58843  -0.72062   0.77263   0.00000  Uiso   1.00
S29    S     0.55515  -0.50228   0.78623   0.00000  Uiso   1.00
S30    S     0.40193  -0.48943   0.78653   0.00000  Uiso   1.00
S31    S     0.55302  -0.31517   0.77654   0.00000  Uiso   1.00
S32    S     0.37020  -0.27254   0.77318   0.00000  Uiso   1.00
Au49   Au    0.46164  -0.29353   0.77203   0.00000  Uiso   1.00
Au50   Au    0.49679  -0.29421   0.21044   0.00000  Uiso   1.00
Au51   Au    0.46104  -0.70211   0.21104   0.00000  Uiso   1.00
Au52   Au    0.49687  -0.70011   0.77167   0.00000  Uiso   1.00
loop_
_geom_bond_atom_site_label_1
_geom_bond_atom_site_label_2
_geom_bond_distance
_geom_bond_site_symmetry_2
_ccdc_geom_bond_type
Au2    S14     2.429   .     S
Au3    S8      2.411   .     S
Au4    S2      2.423   .     S
Au5    S1      2.361   .     S
Au5    S11     2.361   .     S
Au6    S3      2.352   .     S
Au6    S1      2.361   .     S
S2     Au51    2.350   .     S
Au7    S12     2.432   .     S
Au9    S3      2.411   .     S
Au10   S26     2.448   .     S
Au11   S4      2.351   .     S
Au11   S26     2.343   .     S
Au12   S9      2.428   .     S
S4     Au50    2.346   .     S
Au13   S5      2.451   .     S
Au14   S6      2.352   .     S
Au14   S5      2.344   .     S
S6     Au51    2.347   .     S
Au15   S7      2.360   .     S
Au15   S16     2.362   .     S
Au16   S8      2.351   .     S
Au16   S7      2.361   .     S
S9     Au50    2.351   .     S
Au18   S22     2.471   .     S
Au20   S11     2.472   .     S
Au21   S19     2.368   .     S
Au21   S10     2.367   .     S
Au22   S10     2.451   .     S
Au23   S20     2.470   .     S
Au26   S17     2.449   .     S
Au27   S12     2.369   .     S
Au27   S17     2.366   .     S
Au28   S16     2.470   .     S
Au29   S13     2.452   .     S
Au30   S14     2.369   .     S
Au30   S13     2.366   .     S
Au31   S24     2.369   .     S
Au31   S15     2.368   .     S
Au32   S15     2.453   .     S
Au33   S29     2.412   .     S
Au34   S27     2.425   .     S
Au36   S19     2.430   .     S
Au37   S28     2.351   .     S
Au37   S18     2.343   .     S
Au38   S18     2.448   .     S
Au39   S31     2.429   .     S
Au40   S30     2.411   .     S
Au42   S29     2.351   .     S
Au42   S25     2.361   .     S
Au43   S25     2.361   .     S
Au43   S20     2.363   .     S
Au44   S24     2.430   .     S
Au45   S30     2.351   .     S
Au45   S21     2.361   .     S
Au46   S21     2.360   .     S
Au46   S22     2.361   .     S
Au47   S32     2.351   .     S
Au47   S23     2.343   .     S
Au48   S23     2.447   .     S
S27    Au52    2.351   .     S
S28    Au52    2.346   .     S
S31    Au49    2.350   .     S
S32    Au49    2.346   .     S
