data_6e-24-18
_audit_creation_date              2023-04-12
_audit_creation_method            'Materials Studio'
_symmetry_space_group_name_H-M    'P1'
_symmetry_Int_Tables_number       1
_symmetry_cell_setting            triclinic
loop_
_symmetry_equiv_pos_as_xyz
  x,y,z
_cell_length_a                    20.0000
_cell_length_b                    20.0000
_cell_length_c                    20.0000
_cell_angle_alpha                 90.0000
_cell_angle_beta                  90.0000
_cell_angle_gamma                 90.0000
loop_
_atom_site_label
_atom_site_type_symbol
_atom_site_fract_x
_atom_site_fract_y
_atom_site_fract_z
_atom_site_U_iso_or_equiv
_atom_site_adp_type
_atom_site_occupancy
Au1    Au    2.29925   0.36417   0.45685   0.00000  Uiso   1.00
Au2    Au    2.49607   0.29329   0.70023   0.00000  Uiso   1.00
Au3    Au    2.25664   0.55414   0.71029   0.00000  Uiso   1.00
Au4    Au    2.50330   0.54230   0.47461   0.00000  Uiso   1.00
Au5    Au    2.63649   0.42229   0.47431   0.00000  Uiso   1.00
Au6    Au    2.37966   0.67648   0.46529   0.00000  Uiso   1.00
Au7    Au    2.59820   0.63937   0.46024   0.00000  Uiso   1.00
Au8    Au    2.62947   0.42178   0.70532   0.00000  Uiso   1.00
Au9    Au    2.38689   0.68257   0.70398   0.00000  Uiso   1.00
Au10   Au    2.71424   0.68712   0.32518   0.00000  Uiso   1.00
Au11   Au    2.40689   0.44609   0.48885   0.00000  Uiso   1.00
Au12   Au    2.63396   0.54116   0.33767   0.00000  Uiso   1.00
Au13   Au    2.38177   0.33144   0.56555   0.00000  Uiso   1.00
Au14   Au    2.60255   0.54341   0.56861   0.00000  Uiso   1.00
Au15   Au    2.75041   0.53923   0.22574   0.00000  Uiso   1.00
Au16   Au    2.40397   0.54160   0.38084   0.00000  Uiso   1.00
Au17   Au    2.27613   0.45243   0.32430   0.00000  Uiso   1.00
Au18   Au    2.50134   0.66225   0.33341   0.00000  Uiso   1.00
Au19   Au    2.29438   0.43728   0.57585   0.00000  Uiso   1.00
Au20   Au    2.50074   0.64511   0.56465   0.00000  Uiso   1.00
Au21   Au    2.64066   0.40043   0.25767   0.00000  Uiso   1.00
Au22   Au    2.50751   0.44058   0.38337   0.00000  Uiso   1.00
S23    S     2.53198   0.36930   0.28893   0.00000  Uiso   1.00
S24    S     2.32691   0.55205   0.28856   0.00000  Uiso   1.00
S25    S     2.56877   0.60134   0.25963   0.00000  Uiso   1.00
S26    S     2.58491   0.34915   0.54973   0.00000  Uiso   1.00
S27    S     2.30801   0.63216   0.54619   0.00000  Uiso   1.00
S28    S     2.57698   0.34005   0.77194   0.00000  Uiso   1.00
S29    S     2.30824   0.63531   0.77758   0.00000  Uiso   1.00
S30    S     2.75194   0.42186   0.22591   0.00000  Uiso   1.00
S31    S     2.23254   0.34811   0.35888   0.00000  Uiso   1.00
S32    S     2.71019   0.47780   0.40212   0.00000  Uiso   1.00
S33    S     2.43255   0.74228   0.38434   0.00000  Uiso   1.00
S34    S     2.66857   0.72960   0.42424   0.00000  Uiso   1.00
S35    S     2.41442   0.23940   0.63509   0.00000  Uiso   1.00
S36    S     2.20399   0.47068   0.64686   0.00000  Uiso   1.00
S37    S     2.68751   0.50396   0.64439   0.00000  Uiso   1.00
S38    S     2.46811   0.73505   0.63768   0.00000  Uiso   1.00
S39    S     2.75391   0.65622   0.21912   0.00000  Uiso   1.00
Au40   Au    2.37879   0.55671   0.60451   0.00000  Uiso   1.00
Au41   Au    2.50672   0.41943   0.60521   0.00000  Uiso   1.00
S42    S     2.43681   0.48291   0.67713   0.00000  Uiso   1.00
loop_
_geom_bond_atom_site_label_1
_geom_bond_atom_site_label_2
_geom_bond_distance
_geom_bond_site_symmetry_2
_ccdc_geom_bond_type
Au1    Au11    2.780   .     S
Au1    S31     2.392   .     S
Au2    S28     2.356   .     S
Au2    S35     2.351   .     S
Au3    S29     2.348   .     S
Au3    S36     2.346   .     S
Au4    Au16    2.732   .     S
Au4    Au7     2.730   .     S
Au4    Au11    2.739   .     S
Au4    Au22    2.734   .     S
Au4    Au20    2.734   .     S
Au4    Au14    2.734   .     S
Au5    S32     2.343   .     S
Au5    S26     2.341   .     S
Au6    S33     2.339   .     S
Au6    S27     2.336   .     S
Au7    S34     2.399   .     S
Au8    S28     2.356   .     S
Au8    S37     2.352   .     S
Au9    S29     2.353   .     S
Au9    S38     2.345   .     S
Au10   S39     2.348   .     S
Au10   S34     2.341   .     S
Au12   S25     2.363   .     S
Au12   S32     2.365   .     S
Au13   S35     2.398   .     S
Au13   Au19    2.753   .     S
Au14   S37     2.410   .     S
Au15   S39     2.345   .     S
Au15   S30     2.348   .     S
Au16   S24     2.414   .     S
Au17   S24     2.348   .     S
Au17   S31     2.365   .     S
Au18   S25     2.341   .     S
Au18   S33     2.344   .     S
Au19   S36     2.394   .     S
Au20   S38     2.407   .     S
Au21   S23     2.346   .     S
Au21   S30     2.354   .     S
Au22   S23     2.416   .     S
S26    Au41    2.378   .     S
S27    Au40    2.375   .     S
Au40   S42     2.374   .     S
Au41   S42     2.374   .     S
