data_6e-24-18-B1
_audit_creation_date              2023-04-12
_audit_creation_method            'Materials Studio'
_symmetry_space_group_name_H-M    'P1'
_symmetry_Int_Tables_number       1
_symmetry_cell_setting            triclinic
loop_
_symmetry_equiv_pos_as_xyz
  x,y,z
_cell_length_a                    20.0000
_cell_length_b                    20.0000
_cell_length_c                    20.0000
_cell_angle_alpha                 90.0000
_cell_angle_beta                  90.0000
_cell_angle_gamma                 90.0000
loop_
_atom_site_label
_atom_site_type_symbol
_atom_site_fract_x
_atom_site_fract_y
_atom_site_fract_z
_atom_site_U_iso_or_equiv
_atom_site_adp_type
_atom_site_occupancy
Au1    Au    0.59497   1.49593   0.32949   0.00000  Uiso   1.00
Au2    Au    0.69380   1.59222   0.30792   0.00000  Uiso   1.00
Au3    Au    0.46702   1.57823   0.33051   0.00000  Uiso   1.00
Au4    Au    0.60257   1.61281   0.40973   0.00000  Uiso   1.00
Au5    Au    0.69732   1.51108   0.42580   0.00000  Uiso   1.00
Au6    Au    0.47935   1.49368   0.43960   0.00000  Uiso   1.00
Au7    Au    0.72757   1.34097   0.34389   0.00000  Uiso   1.00
Au8    Au    0.48140   1.36742   0.32783   0.00000  Uiso   1.00
Au9    Au    0.37248   1.47563   0.35186   0.00000  Uiso   1.00
Au10   Au    0.58344   1.51327   0.52929   0.00000  Uiso   1.00
Au11   Au    0.71925   1.63085   0.52145   0.00000  Uiso   1.00
Au12   Au    0.48684   1.63713   0.53447   0.00000  Uiso   1.00
Au13   Au    0.20725   1.60796   0.43404   0.00000  Uiso   1.00
Au14   Au    0.37669   1.58688   0.43938   0.00000  Uiso   1.00
Au15   Au    0.58153   1.39766   0.44483   0.00000  Uiso   1.00
Au16   Au    0.73507   1.38276   0.55712   0.00000  Uiso   1.00
Au17   Au    0.48611   1.41139   0.55036   0.00000  Uiso   1.00
Au18   Au    0.36963   1.50854   0.57215   0.00000  Uiso   1.00
Au19   Au    0.72488   1.73086   0.35870   0.00000  Uiso   1.00
Au20   Au    0.20420   1.48118   0.33296   0.00000  Uiso   1.00
Au21   Au    0.36404   1.37067   0.46281   0.00000  Uiso   1.00
Au22   Au    0.58617   1.69763   0.24859   0.00000  Uiso   1.00
Au23   Au    0.58167   1.32883   0.64464   0.00000  Uiso   1.00
Au24   Au    0.78764   1.48173   0.24023   0.00000  Uiso   1.00
S1     S     0.53173   1.70405   0.44860   0.00000  Uiso   1.00
S2     S     0.66891   1.55984   0.60104   0.00000  Uiso   1.00
S3     S     0.65423   1.30271   0.42656   0.00000  Uiso   1.00
S4     S     0.29665   1.66858   0.47882   0.00000  Uiso   1.00
S5     S     0.28909   1.43426   0.52828   0.00000  Uiso   1.00
S6     S     0.68263   1.76496   0.25442   0.00000  Uiso   1.00
S7     S     0.69779   1.31611   0.64615   0.00000  Uiso   1.00
S8     S     0.80616   1.36785   0.26070   0.00000  Uiso   1.00
S9     S     0.78628   1.44253   0.47034   0.00000  Uiso   1.00
S10    S     0.29067   1.42166   0.28136   0.00000  Uiso   1.00
S11    S     0.43975   1.58429   0.62930   0.00000  Uiso   1.00
S12    S     0.78060   1.70999   0.45952   0.00000  Uiso   1.00
S13    S     0.12054   1.54298   0.38807   0.00000  Uiso   1.00
S14    S     0.46463   1.34083   0.64668   0.00000  Uiso   1.00
S15    S     0.77342   1.59630   0.21781   0.00000  Uiso   1.00
S16    S     0.42678   1.29249   0.40101   0.00000  Uiso   1.00
S17    S     0.53625   1.43194   0.24605   0.00000  Uiso   1.00
S18    S     0.48530   1.64079   0.23001   0.00000  Uiso   1.00
loop_
_geom_bond_atom_site_label_1
_geom_bond_atom_site_label_2
_geom_bond_distance
_geom_bond_site_symmetry_2
_ccdc_geom_bond_type
Au1    S17     2.409   .     S
Au2    S15     2.406   .     S
Au2    Au4     2.765   .     S
Au3    Au6     2.771   .     S
Au3    S18     2.396   .     S
Au4    S1      2.438   .     S
Au5    S9      2.416   .     S
Au6    Au14    2.773   .     S
Au6    Au10    2.776   .     S
Au6    Au17    2.763   .     S
Au7    S3      2.339   .     S
Au7    S8      2.351   .     S
Au8    S16     2.362   .     S
Au8    S17     2.355   .     S
Au9    S10     2.415   .     S
Au10   S2      2.418   .     S
Au11   S2      2.359   .     S
Au11   S12     2.355   .     S
Au12   S1      2.355   .     S
Au12   S11     2.367   .     S
Au13   S13     2.354   .     S
Au13   S4      2.339   .     S
Au14   S4      2.420   .     S
Au15   S3      2.420   .     S
Au16   S9      2.343   .     S
Au16   S7      2.346   .     S
Au17   S14     2.426   .     S
Au18   S5      2.360   .     S
Au18   S11     2.360   .     S
Au19   S12     2.341   .     S
Au19   S6      2.351   .     S
Au20   S13     2.354   .     S
Au20   S10     2.339   .     S
Au21   S5      2.362   .     S
Au21   S16     2.355   .     S
Au22   S6      2.356   .     S
Au22   S18     2.345   .     S
Au23   S14     2.353   .     S
Au23   S7      2.337   .     S
Au24   S15     2.352   .     S
Au24   S8      2.344   .     S
