data_8e-29-21
_audit_creation_date              2023-04-12
_audit_creation_method            'Materials Studio'
_symmetry_space_group_name_H-M    'P1'
_symmetry_Int_Tables_number       1
_symmetry_cell_setting            triclinic
loop_
_symmetry_equiv_pos_as_xyz
  x,y,z
_cell_length_a                    20.0000
_cell_length_b                    20.0000
_cell_length_c                    20.0000
_cell_angle_alpha                 90.0000
_cell_angle_beta                  90.0000
_cell_angle_gamma                 90.0000
loop_
_atom_site_label
_atom_site_type_symbol
_atom_site_fract_x
_atom_site_fract_y
_atom_site_fract_z
_atom_site_U_iso_or_equiv
_atom_site_adp_type
_atom_site_occupancy
Au1    Au    0.54604   0.41475   0.18131   0.00000  Uiso   1.00
Au2    Au    0.33806   0.43302   0.41144   0.00000  Uiso   1.00
Au3    Au    0.54519   0.42815   0.45015   0.00000  Uiso   1.00
Au4    Au    0.31071   0.65766   0.43245   0.00000  Uiso   1.00
Au5    Au    0.52267   0.40594   0.67287   0.00000  Uiso   1.00
Au6    Au    0.74384   0.37169   0.69625   0.00000  Uiso   1.00
Au7    Au    0.44327   0.27555   0.18680   0.00000  Uiso   1.00
Au8    Au    0.64645   0.52648   0.45601   0.00000  Uiso   1.00
Au9    Au    0.66279   0.52131   0.68701   0.00000  Uiso   1.00
Au10   Au    0.28521   0.53674   0.66025   0.00000  Uiso   1.00
Au11   Au    0.76957   0.50663   0.81263   0.00000  Uiso   1.00
Au12   Au    0.43954   0.39465   0.30555   0.00000  Uiso   1.00
Au13   Au    0.69395   0.62779   0.31281   0.00000  Uiso   1.00
Au14   Au    0.41708   0.43556   0.52981   0.00000  Uiso   1.00
Au15   Au    0.63253   0.43091   0.56206   0.00000  Uiso   1.00
Au16   Au    0.66853   0.64660   0.55013   0.00000  Uiso   1.00
Au17   Au    0.53889   0.69095   0.23097   0.00000  Uiso   1.00
Au18   Au    0.32849   0.27784   0.32096   0.00000  Uiso   1.00
Au19   Au    0.31780   0.53459   0.29907   0.00000  Uiso   1.00
Au20   Au    0.31644   0.53087   0.51130   0.00000  Uiso   1.00
Au21   Au    0.67096   0.65660   0.78114   0.00000  Uiso   1.00
S22    S     0.39746   0.20080   0.26489   0.00000  Uiso   1.00
S23    S     0.61102   0.48189   0.25162   0.00000  Uiso   1.00
S24    S     0.42201   0.70617   0.23811   0.00000  Uiso   1.00
S25    S     0.65436   0.67981   0.21555   0.00000  Uiso   1.00
S26    S     0.36314   0.71871   0.51810   0.00000  Uiso   1.00
S27    S     0.61820   0.71105   0.46491   0.00000  Uiso   1.00
S28    S     0.36660   0.51479   0.74197   0.00000  Uiso   1.00
S29    S     0.59732   0.44797   0.75327   0.00000  Uiso   1.00
S30    S     0.57216   0.70112   0.73688   0.00000  Uiso   1.00
S31    S     0.77403   0.62297   0.82608   0.00000  Uiso   1.00
S32    S     0.48664   0.34774   0.10495   0.00000  Uiso   1.00
S33    S     0.25652   0.35046   0.37816   0.00000  Uiso   1.00
S34    S     0.51713   0.33750   0.37522   0.00000  Uiso   1.00
S35    S     0.24111   0.60611   0.35263   0.00000  Uiso   1.00
S36    S     0.74329   0.58028   0.40757   0.00000  Uiso   1.00
S37    S     0.45079   0.34510   0.60193   0.00000  Uiso   1.00
S38    S     0.71483   0.34660   0.58597   0.00000  Uiso   1.00
S39    S     0.21332   0.56092   0.57055   0.00000  Uiso   1.00
S40    S     0.73645   0.59592   0.63201   0.00000  Uiso   1.00
S41    S     0.77148   0.38945   0.80885   0.00000  Uiso   1.00
Au42   Au    0.53467   0.63139   0.42871   0.00000  Uiso   1.00
Au43   Au    0.43043   0.53466   0.43021   0.00000  Uiso   1.00
Au44   Au    0.43418   0.62680   0.32885   0.00000  Uiso   1.00
Au45   Au    0.53403   0.52374   0.33494   0.00000  Uiso   1.00
S46    S     0.37972   0.46366   0.22851   0.00000  Uiso   1.00
Au47   Au    0.54939   0.62643   0.64540   0.00000  Uiso   1.00
Au48   Au    0.44313   0.53171   0.64785   0.00000  Uiso   1.00
Au49   Au    0.44360   0.63387   0.54874   0.00000  Uiso   1.00
Au50   Au    0.53921   0.53057   0.54703   0.00000  Uiso   1.00
loop_
_geom_bond_atom_site_label_1
_geom_bond_atom_site_label_2
_geom_bond_distance
_geom_bond_site_symmetry_2
_ccdc_geom_bond_type
Au1    S32     2.354   .     S
Au1    S23     2.339   .     S
Au2    S33     2.414   .     S
Au2    Au43    2.772   .     S
Au3    S34     2.418   .     S
Au4    S35     2.356   .     S
Au4    S26     2.350   .     S
Au5    S29     2.350   .     S
Au5    S37     2.358   .     S
Au6    S38     2.335   .     S
Au6    S41     2.346   .     S
Au7    S32     2.349   .     S
Au7    S22     2.348   .     S
Au8    S36     2.418   .     S
Au9    S29     2.371   .     S
Au9    S40     2.368   .     S
Au10   S28     2.348   .     S
Au10   S39     2.349   .     S
Au11   S31     2.344   .     S
Au11   S41     2.345   .     S
Au12   S46     2.390   .     S
Au12   S34     2.378   .     S
Au13   S25     2.344   .     S
Au13   S36     2.338   .     S
Au14   S37     2.410   .     S
Au15   S38     2.404   .     S
Au15   Au50    2.747   .     S
Au16   S40     2.357   .     S
Au16   S27     2.362   .     S
Au17   S24     2.362   .     S
Au17   S25     2.340   .     S
Au18   S22     2.353   .     S
Au18   S33     2.343   .     S
Au19   S46     2.353   .     S
Au19   S35     2.355   .     S
Au20   S39     2.453   .     S
Au21   S31     2.347   .     S
Au21   S30     2.341   .     S
S23    Au45    2.418   .     S
S24    Au44    2.423   .     S
S26    Au49    2.417   .     S
S27    Au42    2.420   .     S
S28    Au48    2.450   .     S
S30    Au47    2.405   .     S
Au43   Au44    2.741   .     S
Au47   Au50    2.755   .     S
