data_au10
_audit_creation_date              2023-04-12
_audit_creation_method            'Materials Studio'
_symmetry_space_group_name_H-M    'P1'
_symmetry_Int_Tables_number       1
_symmetry_cell_setting            triclinic
loop_
_symmetry_equiv_pos_as_xyz
  x,y,z
_cell_length_a                    20.0000
_cell_length_b                    20.0000
_cell_length_c                    20.0000
_cell_angle_alpha                 90.0000
_cell_angle_beta                  90.0000
_cell_angle_gamma                 90.0000
loop_
_atom_site_label
_atom_site_type_symbol
_atom_site_fract_x
_atom_site_fract_y
_atom_site_fract_z
_atom_site_U_iso_or_equiv
_atom_site_adp_type
_atom_site_occupancy
Au1    Au   -0.70796  -0.44345   0.36805   0.00000  Uiso   1.00
Au2    Au   -0.53303  -0.40089   0.32628   0.00000  Uiso   1.00
Au3    Au   -0.53349  -0.64321   0.50091   0.00000  Uiso   1.00
Au4    Au   -0.70814  -0.59777   0.46483   0.00000  Uiso   1.00
Au5    Au   -0.42263  -0.52043   0.41634   0.00000  Uiso   1.00
Au6    Au   -0.46936  -0.40737   0.51382   0.00000  Uiso   1.00
Au7    Au   -0.46754  -0.62943   0.31323   0.00000  Uiso   1.00
Au8    Au   -0.29505  -0.45155   0.47894   0.00000  Uiso   1.00
Au9    Au   -0.57909  -0.52088   0.41456   0.00000  Uiso   1.00
Au10   Au   -0.29443  -0.59375   0.36393   0.00000  Uiso   1.00
S1     S    -0.22258  -0.53293   0.43433   0.00000  Uiso   1.00
S2     S    -0.58115  -0.60370   0.32795   0.00000  Uiso   1.00
S3     S    -0.35664  -0.66330   0.29214   0.00000  Uiso   1.00
S4     S    -0.64295  -0.68659   0.50592   0.00000  Uiso   1.00
S5     S    -0.42070  -0.61145   0.49455   0.00000  Uiso   1.00
S6     S    -0.64374  -0.36469   0.30855   0.00000  Uiso   1.00
S7     S    -0.41975  -0.42935   0.33820   0.00000  Uiso   1.00
S8     S    -0.78140  -0.51396   0.42689   0.00000  Uiso   1.00
S9     S    -0.58196  -0.43838   0.50171   0.00000  Uiso   1.00
S10    S    -0.35963  -0.36787   0.53101   0.00000  Uiso   1.00
loop_
_geom_bond_atom_site_label_1
_geom_bond_atom_site_label_2
_geom_bond_distance
_geom_bond_site_symmetry_2
_ccdc_geom_bond_type
Au1    S6      2.355   .     S
Au1    S8      2.352   .     S
Au2    S7      2.348   .     S
Au2    S6      2.356   .     S
Au3    S5      2.347   .     S
Au3    S4      2.357   .     S
Au4    S8      2.352   .     S
Au4    S4      2.352   .     S
Au5    S5      2.400   .     S
Au5    S7      2.401   .     S
Au6    S9      2.348   .     S
Au6    S10     2.358   .     S
Au7    S2      2.348   .     S
Au7    S3      2.357   .     S
Au8    S10     2.357   .     S
Au8    S1      2.355   .     S
Au9    S2      2.397   .     S
Au9    S9      2.401   .     S
Au10   S3      2.355   .     S
Au10   S1      2.351   .     S
