data_au12
_audit_creation_date              2023-04-12
_audit_creation_method            'Materials Studio'
_symmetry_space_group_name_H-M    'P1'
_symmetry_Int_Tables_number       1
_symmetry_cell_setting            triclinic
loop_
_symmetry_equiv_pos_as_xyz
  x,y,z
_cell_length_a                    20.0000
_cell_length_b                    20.0000
_cell_length_c                    20.0000
_cell_angle_alpha                 90.0000
_cell_angle_beta                  90.0000
_cell_angle_gamma                 90.0000
loop_
_atom_site_label
_atom_site_type_symbol
_atom_site_fract_x
_atom_site_fract_y
_atom_site_fract_z
_atom_site_U_iso_or_equiv
_atom_site_adp_type
_atom_site_occupancy
Au1    Au    0.22426  -0.47922   0.47639   0.00000  Uiso   1.00
Au2    Au    0.49733  -0.36999   0.58735   0.00000  Uiso   1.00
Au3    Au    0.47773  -0.61640   0.43109   0.00000  Uiso   1.00
Au4    Au    0.31139  -0.60136   0.40749   0.00000  Uiso   1.00
Au5    Au    0.30820  -0.37995   0.58484   0.00000  Uiso   1.00
Au6    Au    0.59236  -0.49706   0.50529   0.00000  Uiso   1.00
Au7    Au    0.50051  -0.61098   0.58681   0.00000  Uiso   1.00
Au8    Au    0.51751  -0.36291   0.43181   0.00000  Uiso   1.00
Au9    Au    0.77030  -0.50149   0.47518   0.00000  Uiso   1.00
Au10   Au    0.68939  -0.60256   0.58332   0.00000  Uiso   1.00
Au11   Au    0.40432  -0.48368   0.50574   0.00000  Uiso   1.00
Au12   Au    0.68282  -0.37740   0.40775   0.00000  Uiso   1.00
S1     S     0.79148  -0.54397   0.58241   0.00000  Uiso   1.00
S2     S     0.75312  -0.46177   0.36612   0.00000  Uiso   1.00
S3     S     0.42106  -0.42461   0.40450   0.00000  Uiso   1.00
S4     S     0.61174  -0.29323   0.44809   0.00000  Uiso   1.00
S5     S     0.38294  -0.68519   0.44762   0.00000  Uiso   1.00
S6     S     0.57504  -0.55591   0.40402   0.00000  Uiso   1.00
S7     S     0.39901  -0.30546   0.58193   0.00000  Uiso   1.00
S8     S     0.60168  -0.42349   0.59815   0.00000  Uiso   1.00
S9     S     0.20608  -0.43851   0.58476   0.00000  Uiso   1.00
S10    S     0.24002  -0.51745   0.36645   0.00000  Uiso   1.00
S11    S     0.39657  -0.55710   0.59889   0.00000  Uiso   1.00
S12    S     0.59810  -0.67640   0.58022   0.00000  Uiso   1.00
loop_
_geom_bond_atom_site_label_1
_geom_bond_atom_site_label_2
_geom_bond_distance
_geom_bond_site_symmetry_2
_ccdc_geom_bond_type
Au1    S10     2.349   .     S
Au1    S9      2.344   .     S
Au2    S8      2.355   .     S
Au2    S7      2.355   .     S
Au3    S6      2.355   .     S
Au3    S5      2.366   .     S
Au4    S10     2.351   .     S
Au4    S5      2.346   .     S
Au5    S9      2.354   .     S
Au5    S7      2.350   .     S
Au6    S8      2.377   .     S
Au6    S6      2.368   .     S
Au7    S11     2.354   .     S
Au7    S12     2.353   .     S
Au8    S3      2.354   .     S
Au8    S4      2.366   .     S
Au9    S2      2.347   .     S
Au9    S1      2.345   .     S
Au10   S1      2.354   .     S
Au10   S12     2.349   .     S
Au11   S11     2.377   .     S
Au11   S3      2.368   .     S
Au12   S2      2.349   .     S
Au12   S4      2.346   .     S
