data_au22-16new34
_audit_creation_date              2023-04-12
_audit_creation_method            'Materials Studio'
_symmetry_space_group_name_H-M    'P1'
_symmetry_Int_Tables_number       1
_symmetry_cell_setting            triclinic
loop_
_symmetry_equiv_pos_as_xyz
  x,y,z
_cell_length_a                    20.0000
_cell_length_b                    20.0000
_cell_length_c                    20.0000
_cell_angle_alpha                 90.0000
_cell_angle_beta                  90.0000
_cell_angle_gamma                 90.0000
loop_
_atom_site_label
_atom_site_type_symbol
_atom_site_fract_x
_atom_site_fract_y
_atom_site_fract_z
_atom_site_U_iso_or_equiv
_atom_site_adp_type
_atom_site_occupancy
Au1    Au    0.45397  -0.55973   0.69978   0.00000  Uiso   1.00
Au2    Au    0.45632  -0.42073   0.71513   0.00000  Uiso   1.00
Au3    Au    0.52606  -0.54332   0.56985   0.00000  Uiso   1.00
Au4    Au    0.52495  -0.40663   0.59062   0.00000  Uiso   1.00
Au5    Au    0.57379  -0.49259   0.70087   0.00000  Uiso   1.00
Au6    Au    0.40231  -0.47943   0.58334   0.00000  Uiso   1.00
Au7    Au    0.44394  -0.52518   0.45141   0.00000  Uiso   1.00
Au8    Au    0.44195  -0.38574   0.46842   0.00000  Uiso   1.00
Au9    Au    0.68777  -0.46321   0.58210   0.00000  Uiso   1.00
S1     S     0.68461  -0.43540   0.46793   0.00000  Uiso   1.00
S2     S     0.69495  -0.49383   0.69588   0.00000  Uiso   1.00
Au10   Au    0.56406  -0.45163   0.45917   0.00000  Uiso   1.00
Au11   Au    0.57965  -0.64927   0.68923   0.00000  Uiso   1.00
Au12   Au    0.38179  -0.63711   0.57087   0.00000  Uiso   1.00
Au13   Au    0.38645  -0.45120   0.84034   0.00000  Uiso   1.00
S3     S     0.59398  -0.64838   0.80622   0.00000  Uiso   1.00
S4     S     0.37772  -0.65327   0.68763   0.00000  Uiso   1.00
S5     S     0.37998  -0.34981   0.77967   0.00000  Uiso   1.00
S6     S     0.39369  -0.55721   0.88963   0.00000  Uiso   1.00
S7     S     0.57048  -0.65751   0.57217   0.00000  Uiso   1.00
S8     S     0.40020  -0.63887   0.45450   0.00000  Uiso   1.00
Au14   Au    0.57659  -0.28966   0.47486   0.00000  Uiso   1.00
Au15   Au    0.38615  -0.29478   0.33684   0.00000  Uiso   1.00
Au16   Au    0.59750  -0.50473   0.20845   0.00000  Uiso   1.00
S9     S     0.60072  -0.28808   0.35947   0.00000  Uiso   1.00
S10    S     0.39027  -0.30126   0.21896   0.00000  Uiso   1.00
S11    S     0.58243  -0.41086   0.14024   0.00000  Uiso   1.00
S12    S     0.55393  -0.28785   0.59033   0.00000  Uiso   1.00
S13    S     0.36646  -0.29071   0.45315   0.00000  Uiso   1.00
Au17   Au    0.49399  -0.59670   0.84132   0.00000  Uiso   1.00
Au18   Au    0.49031  -0.35811   0.19250   0.00000  Uiso   1.00
S14    S     0.60301  -0.59558   0.28427   0.00000  Uiso   1.00
S15    S     0.28897  -0.43698   0.56957   0.00000  Uiso   1.00
S16    S     0.28367  -0.47358   0.33694   0.00000  Uiso   1.00
Au19   Au    0.28746  -0.45432   0.45335   0.00000  Uiso   1.00
Au20   Au    0.51848  -0.37568   0.33918   0.00000  Uiso   1.00
Au21   Au    0.52254  -0.51555   0.33124   0.00000  Uiso   1.00
Au22   Au    0.40200  -0.44733   0.33428   0.00000  Uiso   1.00
loop_
_geom_bond_atom_site_label_1
_geom_bond_atom_site_label_2
_geom_bond_distance
_geom_bond_site_symmetry_2
_ccdc_geom_bond_type
Au1    Au5     2.747   .     S
Au1    S4      2.426   .     S
Au2    S5      2.451   .     S
Au2    Au5     2.769   .     S
Au3    Au4     2.765   .     S
Au3    S7      2.451   .     S
Au4    S12     2.445   .     S
Au5    S2      2.425   .     S
Au6    S15     2.436   .     S
Au7    S8      2.437   .     S
Au8    Au10    2.781   .     S
Au8    S13     2.446   .     S
Au9    S1      2.351   .     S
Au9    S2      2.361   .     S
S1     Au10    2.439   .     S
Au11   S7      2.354   .     S
Au11   S3      2.357   .     S
Au12   S4      2.359   .     S
Au12   S8      2.357   .     S
Au13   S6      2.343   .     S
Au13   S5      2.367   .     S
S3     Au17    2.358   .     S
S6     Au17    2.363   .     S
Au14   S9      2.358   .     S
Au14   S12     2.354   .     S
Au15   S10     2.363   .     S
Au15   S13     2.361   .     S
Au16   S11     2.340   .     S
Au16   S14     2.369   .     S
S9     Au20    2.437   .     S
S10    Au18    2.361   .     S
S11    Au18    2.366   .     S
S14    Au21    2.457   .     S
S15    Au19    2.350   .     S
S16    Au22    2.425   .     S
S16    Au19    2.361   .     S
Au20   Au22    2.737   .     S
Au21   Au22    2.771   .     S
