data_Au22-sr16iso3
_audit_creation_date              2023-04-12
_audit_creation_method            'Materials Studio'
_symmetry_space_group_name_H-M    'P1'
_symmetry_Int_Tables_number       1
_symmetry_cell_setting            triclinic
loop_
_symmetry_equiv_pos_as_xyz
  x,y,z
_cell_length_a                    20.0000
_cell_length_b                    20.0000
_cell_length_c                    20.0000
_cell_angle_alpha                 90.0000
_cell_angle_beta                  90.0000
_cell_angle_gamma                 90.0000
loop_
_atom_site_label
_atom_site_type_symbol
_atom_site_fract_x
_atom_site_fract_y
_atom_site_fract_z
_atom_site_U_iso_or_equiv
_atom_site_adp_type
_atom_site_occupancy
Au1    Au    0.46983  -0.46153   0.49468   0.00000  Uiso   1.00
Au2    Au    0.60940  -0.41642   0.46618   0.00000  Uiso   1.00
Au3    Au    0.58093  -0.53549   0.53735   0.00000  Uiso   1.00
Au4    Au    0.41673  -0.58604   0.40890   0.00000  Uiso   1.00
Au5    Au    0.50229  -0.32526   0.46118   0.00000  Uiso   1.00
Au6    Au    0.54540  -0.51991   0.39545   0.00000  Uiso   1.00
Au7    Au    0.42039  -0.43239   0.34063   0.00000  Uiso   1.00
Au8    Au    0.55884  -0.64924   0.28458   0.00000  Uiso   1.00
Au9    Au    0.52982  -0.66107   0.43456   0.00000  Uiso   1.00
Au10   Au    0.65972  -0.66497   0.52378   0.00000  Uiso   1.00
Au11   Au    0.32172  -0.68449   0.48516   0.00000  Uiso   1.00
Au12   Au    0.44312  -0.76174   0.36515   0.00000  Uiso   1.00
S1     S     0.35000  -0.52655   0.32585   0.00000  Uiso   1.00
S2     S     0.60372  -0.54143   0.29106   0.00000  Uiso   1.00
S3     S     0.25128  -0.59641   0.52015   0.00000  Uiso   1.00
S4     S     0.49058  -0.33830   0.33589   0.00000  Uiso   1.00
S5     S     0.69350  -0.56668   0.57785   0.00000  Uiso   1.00
S6     S     0.60816  -0.75177   0.46460   0.00000  Uiso   1.00
S7     S     0.51308  -0.75672   0.27030   0.00000  Uiso   1.00
S8     S     0.37128  -0.78658   0.45439   0.00000  Uiso   1.00
Au13   Au    0.33792  -0.51348   0.51461   0.00000  Uiso   1.00
Au14   Au    0.35539  -0.38210   0.47629   0.00000  Uiso   1.00
Au15   Au    0.53727  -0.36309   0.58786   0.00000  Uiso   1.00
Au16   Au    0.45176  -0.60669   0.53939   0.00000  Uiso   1.00
Au17   Au    0.39809  -0.42352   0.60720   0.00000  Uiso   1.00
Au18   Au    0.51161  -0.51059   0.67022   0.00000  Uiso   1.00
Au19   Au    0.39387  -0.29951   0.70963   0.00000  Uiso   1.00
Au20   Au    0.37846  -0.23508   0.48207   0.00000  Uiso   1.00
Au21   Au    0.68147  -0.29521   0.53349   0.00000  Uiso   1.00
Au22   Au    0.55370  -0.22047   0.65963   0.00000  Uiso   1.00
S9     S     0.58325  -0.41813   0.68579   0.00000  Uiso   1.00
S10    S     0.33234  -0.39913   0.70582   0.00000  Uiso   1.00
S11    S     0.71449  -0.36048   0.44092   0.00000  Uiso   1.00
S12    S     0.44456  -0.60723   0.66053   0.00000  Uiso   1.00
S13    S     0.27668  -0.28921   0.45756   0.00000  Uiso   1.00
S14    S     0.49075  -0.20835   0.50338   0.00000  Uiso   1.00
S15    S     0.45316  -0.19904   0.71694   0.00000  Uiso   1.00
S16    S     0.66654  -0.22542   0.62611   0.00000  Uiso   1.00
loop_
_geom_bond_atom_site_label_1
_geom_bond_atom_site_label_2
_geom_bond_distance
_geom_bond_site_symmetry_2
_ccdc_geom_bond_type
Au1    Au6     2.754   .     S
Au1    Au17    2.775   .     S
Au2    S11     2.434   .     S
Au3    S5      2.473   .     S
Au4    Au9     2.762   .     S
Au4    S1      2.440   .     S
Au4    Au16    2.734   .     S
Au5    S4      2.530   .     S
Au5    S14     2.497   .     S
Au5    Au15    2.735   .     S
Au6    S2      2.430   .     S
Au7    S4      2.350   .     S
Au7    S1      2.370   .     S
Au8    S2      2.339   .     S
Au8    S7      2.354   .     S
Au9    S6      2.471   .     S
Au10   S5      2.343   .     S
Au10   S6      2.340   .     S
Au11   S8      2.352   .     S
Au11   S3      2.362   .     S
Au12   S8      2.344   .     S
Au12   S7      2.359   .     S
S3     Au13    2.401   .     S
Au13   Au14    2.759   .     S
Au14   S13     2.464   .     S
Au15   S9      2.428   .     S
Au16   S12     2.427   .     S
Au17   S10     2.420   .     S
Au18   S12     2.360   .     S
Au18   S9      2.360   .     S
Au19   S15     2.338   .     S
Au19   S10     2.343   .     S
Au20   S13     2.357   .     S
Au20   S14     2.348   .     S
Au21   S16     2.339   .     S
Au21   S11     2.360   .     S
Au22   S15     2.354   .     S
Au22   S16     2.356   .     S
