data_au26-19iso1
_audit_creation_date              2023-04-12
_audit_creation_method            'Materials Studio'
_symmetry_space_group_name_H-M    'P1'
_symmetry_Int_Tables_number       1
_symmetry_cell_setting            triclinic
loop_
_symmetry_equiv_pos_as_xyz
  x,y,z
_cell_length_a                    20.0000
_cell_length_b                    20.0000
_cell_length_c                    20.0000
_cell_angle_alpha                 90.0000
_cell_angle_beta                  90.0000
_cell_angle_gamma                 90.0000
loop_
_atom_site_label
_atom_site_type_symbol
_atom_site_fract_x
_atom_site_fract_y
_atom_site_fract_z
_atom_site_U_iso_or_equiv
_atom_site_adp_type
_atom_site_occupancy
Au1    Au    0.51666   0.59660   0.22619   0.00000  Uiso   1.00
Au2    Au    0.33964   0.34419   0.50721   0.00000  Uiso   1.00
Au3    Au    0.28621   0.47877   0.70452   0.00000  Uiso   1.00
Au4    Au    0.51280   0.40263   0.44974   0.00000  Uiso   1.00
Au5    Au    0.32263   0.61764   0.44387   0.00000  Uiso   1.00
Au6    Au    0.29434   0.61966   0.26924   0.00000  Uiso   1.00
Au7    Au    0.38823   0.50919   0.19856   0.00000  Uiso   1.00
Au8    Au    0.69180   0.36141   0.45665   0.00000  Uiso   1.00
Au9    Au    0.60843   0.50484   0.43812   0.00000  Uiso   1.00
Au10   Au    0.26112   0.44294   0.25121   0.00000  Uiso   1.00
Au11   Au    0.33022   0.33681   0.69172   0.00000  Uiso   1.00
Au12   Au    0.22472   0.37606   0.42397   0.00000  Uiso   1.00
Au13   Au    0.44092   0.40733   0.62304   0.00000  Uiso   1.00
Au14   Au    0.41356   0.58928   0.58640   0.00000  Uiso   1.00
Au15   Au    0.35471   0.33789   0.35646   0.00000  Uiso   1.00
Au16   Au    0.63386   0.40535   0.32752   0.00000  Uiso   1.00
Au17   Au    0.60563   0.64367   0.32522   0.00000  Uiso   1.00
Au18   Au    0.27905   0.51287   0.52038   0.00000  Uiso   1.00
Au19   Au    0.71397   0.47914   0.55236   0.00000  Uiso   1.00
Au20   Au    0.54495   0.50174   0.56037   0.00000  Uiso   1.00
Au21   Au    0.36714   0.48965   0.34822   0.00000  Uiso   1.00
Au22   Au    0.63096   0.62894   0.51517   0.00000  Uiso   1.00
S23    S     0.24406   0.34305   0.31053   0.00000  Uiso   1.00
S24    S     0.68311   0.49778   0.27448   0.00000  Uiso   1.00
S25    S     0.31666   0.69983   0.35208   0.00000  Uiso   1.00
S26    S     0.53018   0.70999   0.25932   0.00000  Uiso   1.00
S27    S     0.78591   0.39768   0.51234   0.00000  Uiso   1.00
S28    S     0.60357   0.70588   0.43130   0.00000  Uiso   1.00
S29    S     0.38766   0.68495   0.51846   0.00000  Uiso   1.00
S30    S     0.26765   0.38792   0.77467   0.00000  Uiso   1.00
S31    S     0.50133   0.48074   0.20852   0.00000  Uiso   1.00
S32    S     0.23503   0.39730   0.54008   0.00000  Uiso   1.00
S33    S     0.29422   0.56447   0.62791   0.00000  Uiso   1.00
S34    S     0.64751   0.55775   0.60703   0.00000  Uiso   1.00
S35    S     0.47322   0.51415   0.65691   0.00000  Uiso   1.00
S36    S     0.43398   0.30955   0.43841   0.00000  Uiso   1.00
S37    S     0.59703   0.31974   0.40076   0.00000  Uiso   1.00
S38    S     0.26275   0.52341   0.40097   0.00000  Uiso   1.00
S39    S     0.68646   0.56105   0.35792   0.00000  Uiso   1.00
S40    S     0.27436   0.54014   0.18447   0.00000  Uiso   1.00
S41    S     0.39888   0.29830   0.60408   0.00000  Uiso   1.00
Au42   Au    0.49026   0.68678   0.46062   0.00000  Uiso   1.00
Au43   Au    0.45757   0.53366   0.45226   0.00000  Uiso   1.00
Au44   Au    0.42872   0.70207   0.31822   0.00000  Uiso   1.00
Au45   Au    0.50231   0.47163   0.32784   0.00000  Uiso   1.00
loop_
_geom_bond_atom_site_label_1
_geom_bond_atom_site_label_2
_geom_bond_distance
_geom_bond_site_symmetry_2
_ccdc_geom_bond_type
Au1    S31     2.364   .     S
Au1    S26     2.378   .     S
Au2    S36     2.436   .     S
Au2    S41     2.449   .     S
Au2    S32     2.437   .     S
Au3    S30     2.325   .     S
Au3    S33     2.305   .     S
Au4    S36     2.450   .     S
Au4    S37     2.558   .     S
Au5    S29     2.394   .     S
Au5    Au18    2.737   .     S
Au5    S38     2.392   .     S
Au5    S25     2.467   .     S
Au6    S25     2.349   .     S
Au6    S40     2.359   .     S
Au7    S40     2.377   .     S
Au7    S31     2.341   .     S
Au8    S37     2.353   .     S
Au8    S27     2.304   .     S
Au9    S39     2.504   .     S
Au9    Au20    2.756   .     S
Au10   S23     2.348   .     S
Au10   S40     2.373   .     S
Au11   S30     2.316   .     S
Au11   S41     2.356   .     S
Au12   S23     2.395   .     S
Au12   S32     2.370   .     S
Au13   S41     2.368   .     S
Au13   S35     2.332   .     S
Au14   S33     2.575   .     S
Au14   S35     2.381   .     S
Au14   S29     2.403   .     S
Au15   S23     2.398   .     S
Au15   S36     2.350   .     S
Au16   S24     2.348   .     S
Au16   S37     2.371   .     S
Au17   S26     2.403   .     S
Au17   S39     2.403   .     S
Au17   S28     2.460   .     S
Au18   S38     2.420   .     S
Au18   S33     2.405   .     S
Au18   S32     2.504   .     S
Au19   S34     2.331   .     S
Au19   S27     2.316   .     S
Au20   S35     2.418   .     S
Au20   S34     2.517   .     S
Au21   Au45    2.758   .     S
Au21   S38     2.435   .     S
Au22   S28     2.341   .     S
Au22   S34     2.348   .     S
S24    S39     2.095   .     S
S25    Au44    2.342   .     S
S26    Au44    2.352   .     S
S28    Au42    2.372   .     S
S29    Au42    2.356   .     S
S31    Au45    2.393   .     S
